* XSpice netlist created from SPICE and liberty sources by spi2xspice.py
*SPICE netlist created from verilog structural netlist module DDFS by vlog2Spice (qflow)
** Start of included library /usr/local/share/qflow/tech/etri050/etri050_stdcells.sp
* NGSPICE file created from khu_etri050_stdcells.ext - technology: scmos
** End of included library /usr/local/share/qflow/tech/etri050/etri050_stdcells.sp
.subckt DDFS a_vdd a_gnd a_Dout_0_ a_Dout_1_ a_Dout_2_ a_Dout_3_ a_Dout_4_ a_Dout_5_ a_Dout_6_ a_Dout_7_ a_Dout_8_ a_Dout_9_ a_Dout_10_ a_Dout_11_ a_En a_FCW_0_ a_FCW_1_ a_FCW_2_ a_FCW_3_ a_FCW_4_ a_FCW_5_ a_FCW_6_ a_FCW_7_ a_FCW_8_ a_FCW_9_ a_FCW_10_ a_FCW_11_ a_FCW_12_ a_FCW_13_ a_FCW_14_ a_FCW_15_ a_FCW_16_ a_FCW_17_ a_FCW_18_ a_FCW_19_ a_Vld a_clk a_selXY
ACLKBUF1_insert336 [clk] clk_hier0_bF$buf0 d_lut_CLKBUF1
ACLKBUF1_insert335 [clk] clk_hier0_bF$buf1 d_lut_CLKBUF1
ACLKBUF1_insert334 [clk] clk_hier0_bF$buf2 d_lut_CLKBUF1
ACLKBUF1_insert333 [clk] clk_hier0_bF$buf3 d_lut_CLKBUF1
ACLKBUF1_insert332 [clk] clk_hier0_bF$buf4 d_lut_CLKBUF1
ACLKBUF1_insert331 [clk] clk_hier0_bF$buf5 d_lut_CLKBUF1
ACLKBUF1_insert330 [clk] clk_hier0_bF$buf6 d_lut_CLKBUF1
ACLKBUF1_insert329 [clk] clk_hier0_bF$buf7 d_lut_CLKBUF1
ABUFX2_insert328 [\u_ot.ISout\] \u_ot.ISout_bF$buf0\ d_lut_BUFX2
ABUFX2_insert327 [\u_ot.ISout\] \u_ot.ISout_bF$buf1\ d_lut_BUFX2
ABUFX2_insert326 [\u_ot.ISout\] \u_ot.ISout_bF$buf2\ d_lut_BUFX2
ABUFX2_insert325 [\u_ot.ISout\] \u_ot.ISout_bF$buf3\ d_lut_BUFX2
ABUFX2_insert324 [\u_ot.ISout\] \u_ot.ISout_bF$buf4\ d_lut_BUFX2
ABUFX2_insert323 [\genblk1_4_.u_ce.Vld\] \genblk1_4_.u_ce.Vld_bF$buf0\ d_lut_BUFX2
ABUFX2_insert322 [\genblk1_4_.u_ce.Vld\] \genblk1_4_.u_ce.Vld_bF$buf1\ d_lut_BUFX2
ABUFX2_insert321 [\genblk1_4_.u_ce.Vld\] \genblk1_4_.u_ce.Vld_bF$buf2\ d_lut_BUFX2
ABUFX2_insert320 [\genblk1_4_.u_ce.Vld\] \genblk1_4_.u_ce.Vld_bF$buf3\ d_lut_BUFX2
ABUFX2_insert319 [\genblk1_4_.u_ce.Vld\] \genblk1_4_.u_ce.Vld_bF$buf4\ d_lut_BUFX2
ABUFX2_insert318 [\genblk1_4_.u_ce.LoadCtl\_0_] \genblk1_4_.u_ce.LoadCtl_0_bF$buf0\ d_lut_BUFX2
ABUFX2_insert317 [\genblk1_4_.u_ce.LoadCtl\_0_] \genblk1_4_.u_ce.LoadCtl_0_bF$buf1\ d_lut_BUFX2
ABUFX2_insert316 [\genblk1_4_.u_ce.LoadCtl\_0_] \genblk1_4_.u_ce.LoadCtl_0_bF$buf2\ d_lut_BUFX2
ABUFX2_insert315 [\genblk1_4_.u_ce.LoadCtl\_0_] \genblk1_4_.u_ce.LoadCtl_0_bF$buf3\ d_lut_BUFX2
ABUFX2_insert314 [\genblk1_4_.u_ce.LoadCtl\_0_] \genblk1_4_.u_ce.LoadCtl_0_bF$buf4\ d_lut_BUFX2
ABUFX2_insert313 [_2756_] _2756__bF$buf0 d_lut_BUFX2
ABUFX2_insert312 [_2756_] _2756__bF$buf1 d_lut_BUFX2
ABUFX2_insert311 [_2756_] _2756__bF$buf2 d_lut_BUFX2
ABUFX2_insert310 [_2756_] _2756__bF$buf3 d_lut_BUFX2
ABUFX2_insert309 [_2756_] _2756__bF$buf4 d_lut_BUFX2
ABUFX2_insert308 [\genblk1_0_.u_ce.LoadCtl\_0_] \genblk1_0_.u_ce.LoadCtl_0_bF$buf0\ d_lut_BUFX2
ABUFX2_insert307 [\genblk1_0_.u_ce.LoadCtl\_0_] \genblk1_0_.u_ce.LoadCtl_0_bF$buf1\ d_lut_BUFX2
ABUFX2_insert306 [\genblk1_0_.u_ce.LoadCtl\_0_] \genblk1_0_.u_ce.LoadCtl_0_bF$buf2\ d_lut_BUFX2
ABUFX2_insert305 [\genblk1_0_.u_ce.LoadCtl\_0_] \genblk1_0_.u_ce.LoadCtl_0_bF$buf3\ d_lut_BUFX2
ABUFX2_insert304 [\genblk1_0_.u_ce.LoadCtl\_0_] \genblk1_0_.u_ce.LoadCtl_0_bF$buf4\ d_lut_BUFX2
ABUFX2_insert303 [_2762_] _2762__bF$buf0 d_lut_BUFX2
ABUFX2_insert302 [_2762_] _2762__bF$buf1 d_lut_BUFX2
ABUFX2_insert301 [_2762_] _2762__bF$buf2 d_lut_BUFX2
ABUFX2_insert300 [_2762_] _2762__bF$buf3 d_lut_BUFX2
ABUFX2_insert299 [_2762_] _2762__bF$buf4 d_lut_BUFX2
ABUFX2_insert298 [\genblk1_4_.u_ce.Ain12b\_11_] \genblk1_4_.u_ce.Ain12b_11_bF$buf0\ d_lut_BUFX2
ABUFX2_insert297 [\genblk1_4_.u_ce.Ain12b\_11_] \genblk1_4_.u_ce.Ain12b_11_bF$buf1\ d_lut_BUFX2
ABUFX2_insert296 [\genblk1_4_.u_ce.Ain12b\_11_] \genblk1_4_.u_ce.Ain12b_11_bF$buf2\ d_lut_BUFX2
ABUFX2_insert295 [\genblk1_4_.u_ce.Ain12b\_11_] \genblk1_4_.u_ce.Ain12b_11_bF$buf3\ d_lut_BUFX2
ABUFX2_insert294 [\genblk1_4_.u_ce.Ain12b\_11_] \genblk1_4_.u_ce.Ain12b_11_bF$buf4\ d_lut_BUFX2
ABUFX2_insert293 [_5270_] _5270__bF$buf0 d_lut_BUFX2
ABUFX2_insert292 [_5270_] _5270__bF$buf1 d_lut_BUFX2
ABUFX2_insert291 [_5270_] _5270__bF$buf2 d_lut_BUFX2
ABUFX2_insert290 [_5270_] _5270__bF$buf3 d_lut_BUFX2
ABUFX2_insert289 [\genblk1_0_.u_ce.Ain12b\_11_] \genblk1_0_.u_ce.Ain12b_11_bF$buf0\ d_lut_BUFX2
ABUFX2_insert288 [\genblk1_0_.u_ce.Ain12b\_11_] \genblk1_0_.u_ce.Ain12b_11_bF$buf1\ d_lut_BUFX2
ABUFX2_insert287 [\genblk1_0_.u_ce.Ain12b\_11_] \genblk1_0_.u_ce.Ain12b_11_bF$buf2\ d_lut_BUFX2
ABUFX2_insert286 [\genblk1_0_.u_ce.Ain12b\_11_] \genblk1_0_.u_ce.Ain12b_11_bF$buf3\ d_lut_BUFX2
ABUFX2_insert285 [\genblk1_0_.u_ce.Ain12b\_11_] \genblk1_0_.u_ce.Ain12b_11_bF$buf4\ d_lut_BUFX2
ABUFX2_insert284 [_5276_] _5276__bF$buf0 d_lut_BUFX2
ABUFX2_insert283 [_5276_] _5276__bF$buf1 d_lut_BUFX2
ABUFX2_insert282 [_5276_] _5276__bF$buf2 d_lut_BUFX2
ABUFX2_insert281 [_5276_] _5276__bF$buf3 d_lut_BUFX2
ABUFX2_insert280 [_5276_] _5276__bF$buf4 d_lut_BUFX2
ABUFX2_insert279 [_2789_] _2789__bF$buf0 d_lut_BUFX2
ABUFX2_insert278 [_2789_] _2789__bF$buf1 d_lut_BUFX2
ABUFX2_insert277 [_2789_] _2789__bF$buf2 d_lut_BUFX2
ABUFX2_insert276 [_2789_] _2789__bF$buf3 d_lut_BUFX2
ABUFX2_insert275 [_5303_] _5303__bF$buf0 d_lut_BUFX2
ABUFX2_insert274 [_5303_] _5303__bF$buf1 d_lut_BUFX2
ABUFX2_insert273 [_5303_] _5303__bF$buf2 d_lut_BUFX2
ABUFX2_insert272 [_5303_] _5303__bF$buf3 d_lut_BUFX2
ABUFX2_insert271 [_2851_] _2851__bF$buf0 d_lut_BUFX2
ABUFX2_insert270 [_2851_] _2851__bF$buf1 d_lut_BUFX2
ABUFX2_insert269 [_2851_] _2851__bF$buf2 d_lut_BUFX2
ABUFX2_insert268 [_2851_] _2851__bF$buf3 d_lut_BUFX2
ABUFX2_insert267 [_2851_] _2851__bF$buf4 d_lut_BUFX2
ABUFX2_insert266 [_2851_] _2851__bF$buf5 d_lut_BUFX2
ABUFX2_insert265 [\genblk1_3_.u_ce.LoadCtl\_0_] \genblk1_3_.u_ce.LoadCtl_0_bF$buf0\ d_lut_BUFX2
ABUFX2_insert264 [\genblk1_3_.u_ce.LoadCtl\_0_] \genblk1_3_.u_ce.LoadCtl_0_bF$buf1\ d_lut_BUFX2
ABUFX2_insert263 [\genblk1_3_.u_ce.LoadCtl\_0_] \genblk1_3_.u_ce.LoadCtl_0_bF$buf2\ d_lut_BUFX2
ABUFX2_insert262 [\genblk1_3_.u_ce.LoadCtl\_0_] \genblk1_3_.u_ce.LoadCtl_0_bF$buf3\ d_lut_BUFX2
ABUFX2_insert261 [\genblk1_3_.u_ce.LoadCtl\_0_] \genblk1_3_.u_ce.LoadCtl_0_bF$buf4\ d_lut_BUFX2
ABUFX2_insert260 [\genblk1_2_.u_ce.LoadCtl\_0_] \genblk1_2_.u_ce.LoadCtl_0_bF$buf0\ d_lut_BUFX2
ABUFX2_insert259 [\genblk1_2_.u_ce.LoadCtl\_0_] \genblk1_2_.u_ce.LoadCtl_0_bF$buf1\ d_lut_BUFX2
ABUFX2_insert258 [\genblk1_2_.u_ce.LoadCtl\_0_] \genblk1_2_.u_ce.LoadCtl_0_bF$buf2\ d_lut_BUFX2
ABUFX2_insert257 [\genblk1_2_.u_ce.LoadCtl\_0_] \genblk1_2_.u_ce.LoadCtl_0_bF$buf3\ d_lut_BUFX2
ABUFX2_insert256 [\genblk1_2_.u_ce.LoadCtl\_0_] \genblk1_2_.u_ce.LoadCtl_0_bF$buf4\ d_lut_BUFX2
ABUFX2_insert255 [\genblk1_1_.u_ce.Vld\] \genblk1_1_.u_ce.Vld_bF$buf0\ d_lut_BUFX2
ABUFX2_insert254 [\genblk1_1_.u_ce.Vld\] \genblk1_1_.u_ce.Vld_bF$buf1\ d_lut_BUFX2
ABUFX2_insert253 [\genblk1_1_.u_ce.Vld\] \genblk1_1_.u_ce.Vld_bF$buf2\ d_lut_BUFX2
ABUFX2_insert252 [\genblk1_1_.u_ce.Vld\] \genblk1_1_.u_ce.Vld_bF$buf3\ d_lut_BUFX2
ABUFX2_insert251 [\genblk1_1_.u_ce.Vld\] \genblk1_1_.u_ce.Vld_bF$buf4\ d_lut_BUFX2
ABUFX2_insert250 [_4474_] _4474__bF$buf0 d_lut_BUFX2
ABUFX2_insert249 [_4474_] _4474__bF$buf1 d_lut_BUFX2
ABUFX2_insert248 [_4474_] _4474__bF$buf2 d_lut_BUFX2
ABUFX2_insert247 [_4474_] _4474__bF$buf3 d_lut_BUFX2
ABUFX2_insert246 [_4474_] _4474__bF$buf4 d_lut_BUFX2
ABUFX2_insert245 [_6047_] _6047__bF$buf0 d_lut_BUFX2
ABUFX2_insert244 [_6047_] _6047__bF$buf1 d_lut_BUFX2
ABUFX2_insert243 [_6047_] _6047__bF$buf2 d_lut_BUFX2
ABUFX2_insert242 [_6047_] _6047__bF$buf3 d_lut_BUFX2
ABUFX2_insert241 [_1890_] _1890__bF$buf0 d_lut_BUFX2
ABUFX2_insert240 [_1890_] _1890__bF$buf1 d_lut_BUFX2
ABUFX2_insert239 [_1890_] _1890__bF$buf2 d_lut_BUFX2
ABUFX2_insert238 [_1890_] _1890__bF$buf3 d_lut_BUFX2
ABUFX2_insert237 [_1890_] _1890__bF$buf4 d_lut_BUFX2
ABUFX2_insert236 [\genblk1_3_.u_ce.Ain12b\_11_] \genblk1_3_.u_ce.Ain12b_11_bF$buf0\ d_lut_BUFX2
ABUFX2_insert235 [\genblk1_3_.u_ce.Ain12b\_11_] \genblk1_3_.u_ce.Ain12b_11_bF$buf1\ d_lut_BUFX2
ABUFX2_insert234 [\genblk1_3_.u_ce.Ain12b\_11_] \genblk1_3_.u_ce.Ain12b_11_bF$buf2\ d_lut_BUFX2
ABUFX2_insert233 [\genblk1_3_.u_ce.Ain12b\_11_] \genblk1_3_.u_ce.Ain12b_11_bF$buf3\ d_lut_BUFX2
ABUFX2_insert232 [\genblk1_3_.u_ce.Ain12b\_11_] \genblk1_3_.u_ce.Ain12b_11_bF$buf4\ d_lut_BUFX2
ABUFX2_insert231 [_4480_] _4480__bF$buf0 d_lut_BUFX2
ABUFX2_insert230 [_4480_] _4480__bF$buf1 d_lut_BUFX2
ABUFX2_insert229 [_4480_] _4480__bF$buf2 d_lut_BUFX2
ABUFX2_insert228 [_4480_] _4480__bF$buf3 d_lut_BUFX2
ABUFX2_insert227 [_4480_] _4480__bF$buf4 d_lut_BUFX2
ABUFX2_insert226 [\genblk1_2_.u_ce.Ain12b\_11_] \genblk1_2_.u_ce.Ain12b_11_bF$buf0\ d_lut_BUFX2
ABUFX2_insert225 [\genblk1_2_.u_ce.Ain12b\_11_] \genblk1_2_.u_ce.Ain12b_11_bF$buf1\ d_lut_BUFX2
ABUFX2_insert224 [\genblk1_2_.u_ce.Ain12b\_11_] \genblk1_2_.u_ce.Ain12b_11_bF$buf2\ d_lut_BUFX2
ABUFX2_insert223 [\genblk1_2_.u_ce.Ain12b\_11_] \genblk1_2_.u_ce.Ain12b_11_bF$buf3\ d_lut_BUFX2
ABUFX2_insert222 [\genblk1_2_.u_ce.Ain12b\_11_] \genblk1_2_.u_ce.Ain12b_11_bF$buf4\ d_lut_BUFX2
ABUFX2_insert221 [_5365_] _5365__bF$buf0 d_lut_BUFX2
ABUFX2_insert220 [_5365_] _5365__bF$buf1 d_lut_BUFX2
ABUFX2_insert219 [_5365_] _5365__bF$buf2 d_lut_BUFX2
ABUFX2_insert218 [_5365_] _5365__bF$buf3 d_lut_BUFX2
ABUFX2_insert217 [_5365_] _5365__bF$buf4 d_lut_BUFX2
ABUFX2_insert216 [_5365_] _5365__bF$buf5 d_lut_BUFX2
ABUFX2_insert215 [_3622_] _3622__bF$buf0 d_lut_BUFX2
ABUFX2_insert214 [_3622_] _3622__bF$buf1 d_lut_BUFX2
ABUFX2_insert213 [_3622_] _3622__bF$buf2 d_lut_BUFX2
ABUFX2_insert212 [_3622_] _3622__bF$buf3 d_lut_BUFX2
ABUFX2_insert211 [_3622_] _3622__bF$buf4 d_lut_BUFX2
ABUFX2_insert210 [_1896_] _1896__bF$buf0 d_lut_BUFX2
ABUFX2_insert209 [_1896_] _1896__bF$buf1 d_lut_BUFX2
ABUFX2_insert208 [_1896_] _1896__bF$buf2 d_lut_BUFX2
ABUFX2_insert207 [_1896_] _1896__bF$buf3 d_lut_BUFX2
ABUFX2_insert206 [_1896_] _1896__bF$buf4 d_lut_BUFX2
ABUFX2_insert205 [_158_] _158__bF$buf0 d_lut_BUFX2
ABUFX2_insert204 [_158_] _158__bF$buf1 d_lut_BUFX2
ABUFX2_insert203 [_158_] _158__bF$buf2 d_lut_BUFX2
ABUFX2_insert202 [_158_] _158__bF$buf3 d_lut_BUFX2
ABUFX2_insert201 [_158_] _158__bF$buf4 d_lut_BUFX2
ABUFX2_insert200 [\genblk1_3_.u_ce.Vld\] \genblk1_3_.u_ce.Vld_bF$buf0\ d_lut_BUFX2
ABUFX2_insert199 [\genblk1_3_.u_ce.Vld\] \genblk1_3_.u_ce.Vld_bF$buf1\ d_lut_BUFX2
ABUFX2_insert198 [\genblk1_3_.u_ce.Vld\] \genblk1_3_.u_ce.Vld_bF$buf2\ d_lut_BUFX2
ABUFX2_insert197 [\genblk1_3_.u_ce.Vld\] \genblk1_3_.u_ce.Vld_bF$buf3\ d_lut_BUFX2
ABUFX2_insert196 [\genblk1_3_.u_ce.Vld\] \genblk1_3_.u_ce.Vld_bF$buf4\ d_lut_BUFX2
ABUFX2_insert195 [_4507_] _4507__bF$buf0 d_lut_BUFX2
ABUFX2_insert194 [_4507_] _4507__bF$buf1 d_lut_BUFX2
ABUFX2_insert193 [_4507_] _4507__bF$buf2 d_lut_BUFX2
ABUFX2_insert192 [_4507_] _4507__bF$buf3 d_lut_BUFX2
ABUFX2_insert191 [_164_] _164__bF$buf0 d_lut_BUFX2
ABUFX2_insert190 [_164_] _164__bF$buf1 d_lut_BUFX2
ABUFX2_insert189 [_164_] _164__bF$buf2 d_lut_BUFX2
ABUFX2_insert188 [_164_] _164__bF$buf3 d_lut_BUFX2
ABUFX2_insert187 [_164_] _164__bF$buf4 d_lut_BUFX2
ABUFX2_insert186 [_1024_] _1024__bF$buf0 d_lut_BUFX2
ABUFX2_insert185 [_1024_] _1024__bF$buf1 d_lut_BUFX2
ABUFX2_insert184 [_1024_] _1024__bF$buf2 d_lut_BUFX2
ABUFX2_insert183 [_1024_] _1024__bF$buf3 d_lut_BUFX2
ABUFX2_insert182 [_1024_] _1024__bF$buf4 d_lut_BUFX2
ABUFX2_insert181 [_1923_] _1923__bF$buf0 d_lut_BUFX2
ABUFX2_insert180 [_1923_] _1923__bF$buf1 d_lut_BUFX2
ABUFX2_insert179 [_1923_] _1923__bF$buf2 d_lut_BUFX2
ABUFX2_insert178 [_1923_] _1923__bF$buf3 d_lut_BUFX2
ABUFX2_insert177 [_3628_] _3628__bF$buf0 d_lut_BUFX2
ABUFX2_insert176 [_3628_] _3628__bF$buf1 d_lut_BUFX2
ABUFX2_insert175 [_3628_] _3628__bF$buf2 d_lut_BUFX2
ABUFX2_insert174 [_3628_] _3628__bF$buf3 d_lut_BUFX2
ABUFX2_insert173 [_3628_] _3628__bF$buf4 d_lut_BUFX2
ABUFX2_insert172 [\genblk1_6_.u_ce.LoadCtl\_0_] \genblk1_6_.u_ce.LoadCtl_0_bF$buf0\ d_lut_BUFX2
ABUFX2_insert171 [\genblk1_6_.u_ce.LoadCtl\_0_] \genblk1_6_.u_ce.LoadCtl_0_bF$buf1\ d_lut_BUFX2
ABUFX2_insert170 [\genblk1_6_.u_ce.LoadCtl\_0_] \genblk1_6_.u_ce.LoadCtl_0_bF$buf2\ d_lut_BUFX2
ABUFX2_insert169 [\genblk1_6_.u_ce.LoadCtl\_0_] \genblk1_6_.u_ce.LoadCtl_0_bF$buf3\ d_lut_BUFX2
ABUFX2_insert168 [_1030_] _1030__bF$buf0 d_lut_BUFX2
ABUFX2_insert167 [_1030_] _1030__bF$buf1 d_lut_BUFX2
ABUFX2_insert166 [_1030_] _1030__bF$buf2 d_lut_BUFX2
ABUFX2_insert165 [_1030_] _1030__bF$buf3 d_lut_BUFX2
ABUFX2_insert164 [_1030_] _1030__bF$buf4 d_lut_BUFX2
ABUFX2_insert163 [\genblk1_5_.u_ce.LoadCtl\_0_] \genblk1_5_.u_ce.LoadCtl_0_bF$buf0\ d_lut_BUFX2
ABUFX2_insert162 [\genblk1_5_.u_ce.LoadCtl\_0_] \genblk1_5_.u_ce.LoadCtl_0_bF$buf1\ d_lut_BUFX2
ABUFX2_insert161 [\genblk1_5_.u_ce.LoadCtl\_0_] \genblk1_5_.u_ce.LoadCtl_0_bF$buf2\ d_lut_BUFX2
ABUFX2_insert160 [\genblk1_5_.u_ce.LoadCtl\_0_] \genblk1_5_.u_ce.LoadCtl_0_bF$buf3\ d_lut_BUFX2
ABUFX2_insert159 [\genblk1_5_.u_ce.LoadCtl\_0_] \genblk1_5_.u_ce.LoadCtl_0_bF$buf4\ d_lut_BUFX2
ABUFX2_insert158 [\genblk1_5_.u_ce.Vld\] \genblk1_5_.u_ce.Vld_bF$buf0\ d_lut_BUFX2
ABUFX2_insert157 [\genblk1_5_.u_ce.Vld\] \genblk1_5_.u_ce.Vld_bF$buf1\ d_lut_BUFX2
ABUFX2_insert156 [\genblk1_5_.u_ce.Vld\] \genblk1_5_.u_ce.Vld_bF$buf2\ d_lut_BUFX2
ABUFX2_insert155 [\genblk1_5_.u_ce.Vld\] \genblk1_5_.u_ce.Vld_bF$buf3\ d_lut_BUFX2
ABUFX2_insert154 [_6133_] _6133__bF$buf0 d_lut_BUFX2
ABUFX2_insert153 [_6133_] _6133__bF$buf1 d_lut_BUFX2
ABUFX2_insert152 [_6133_] _6133__bF$buf2 d_lut_BUFX2
ABUFX2_insert151 [_6133_] _6133__bF$buf3 d_lut_BUFX2
ABUFX2_insert150 [\genblk1_1_.u_ce.LoadCtl\_0_] \genblk1_1_.u_ce.LoadCtl_0_bF$buf0\ d_lut_BUFX2
ABUFX2_insert149 [\genblk1_1_.u_ce.LoadCtl\_0_] \genblk1_1_.u_ce.LoadCtl_0_bF$buf1\ d_lut_BUFX2
ABUFX2_insert148 [\genblk1_1_.u_ce.LoadCtl\_0_] \genblk1_1_.u_ce.LoadCtl_0_bF$buf2\ d_lut_BUFX2
ABUFX2_insert147 [\genblk1_1_.u_ce.LoadCtl\_0_] \genblk1_1_.u_ce.LoadCtl_0_bF$buf3\ d_lut_BUFX2
ABUFX2_insert146 [\genblk1_1_.u_ce.LoadCtl\_0_] \genblk1_1_.u_ce.LoadCtl_0_bF$buf4\ d_lut_BUFX2
ABUFX2_insert145 [\genblk1_0_.u_ce.Vld\] \genblk1_0_.u_ce.Vld_bF$buf0\ d_lut_BUFX2
ABUFX2_insert144 [\genblk1_0_.u_ce.Vld\] \genblk1_0_.u_ce.Vld_bF$buf1\ d_lut_BUFX2
ABUFX2_insert143 [\genblk1_0_.u_ce.Vld\] \genblk1_0_.u_ce.Vld_bF$buf2\ d_lut_BUFX2
ABUFX2_insert142 [\genblk1_0_.u_ce.Vld\] \genblk1_0_.u_ce.Vld_bF$buf3\ d_lut_BUFX2
ABUFX2_insert141 [\genblk1_0_.u_ce.Vld\] \genblk1_0_.u_ce.Vld_bF$buf4\ d_lut_BUFX2
ABUFX2_insert140 [selXY] selXY_bF$buf0 d_lut_BUFX2
ABUFX2_insert139 [selXY] selXY_bF$buf1 d_lut_BUFX2
ABUFX2_insert138 [selXY] selXY_bF$buf2 d_lut_BUFX2
ABUFX2_insert137 [selXY] selXY_bF$buf3 d_lut_BUFX2
ABUFX2_insert136 [\genblk1_6_.u_ce.Ain12b\_11_] \genblk1_6_.u_ce.Ain12b_11_bF$buf0\ d_lut_BUFX2
ABUFX2_insert135 [\genblk1_6_.u_ce.Ain12b\_11_] \genblk1_6_.u_ce.Ain12b_11_bF$buf1\ d_lut_BUFX2
ABUFX2_insert134 [\genblk1_6_.u_ce.Ain12b\_11_] \genblk1_6_.u_ce.Ain12b_11_bF$buf2\ d_lut_BUFX2
ABUFX2_insert133 [\genblk1_6_.u_ce.Ain12b\_11_] \genblk1_6_.u_ce.Ain12b_11_bF$buf3\ d_lut_BUFX2
ACLKBUF1_insert132 [clk_hier0_bF$buf7] clk_bF$buf0 d_lut_CLKBUF1
ACLKBUF1_insert131 [clk_hier0_bF$buf6] clk_bF$buf1 d_lut_CLKBUF1
ACLKBUF1_insert130 [clk_hier0_bF$buf5] clk_bF$buf2 d_lut_CLKBUF1
ACLKBUF1_insert129 [clk_hier0_bF$buf4] clk_bF$buf3 d_lut_CLKBUF1
ACLKBUF1_insert128 [clk_hier0_bF$buf3] clk_bF$buf4 d_lut_CLKBUF1
ACLKBUF1_insert127 [clk_hier0_bF$buf2] clk_bF$buf5 d_lut_CLKBUF1
ACLKBUF1_insert126 [clk_hier0_bF$buf1] clk_bF$buf6 d_lut_CLKBUF1
ACLKBUF1_insert125 [clk_hier0_bF$buf0] clk_bF$buf7 d_lut_CLKBUF1
ACLKBUF1_insert124 [clk_hier0_bF$buf7] clk_bF$buf8 d_lut_CLKBUF1
ACLKBUF1_insert123 [clk_hier0_bF$buf6] clk_bF$buf9 d_lut_CLKBUF1
ACLKBUF1_insert122 [clk_hier0_bF$buf5] clk_bF$buf10 d_lut_CLKBUF1
ACLKBUF1_insert121 [clk_hier0_bF$buf4] clk_bF$buf11 d_lut_CLKBUF1
ACLKBUF1_insert120 [clk_hier0_bF$buf3] clk_bF$buf12 d_lut_CLKBUF1
ACLKBUF1_insert119 [clk_hier0_bF$buf2] clk_bF$buf13 d_lut_CLKBUF1
ACLKBUF1_insert118 [clk_hier0_bF$buf1] clk_bF$buf14 d_lut_CLKBUF1
ACLKBUF1_insert117 [clk_hier0_bF$buf0] clk_bF$buf15 d_lut_CLKBUF1
ACLKBUF1_insert116 [clk_hier0_bF$buf7] clk_bF$buf16 d_lut_CLKBUF1
ACLKBUF1_insert115 [clk_hier0_bF$buf6] clk_bF$buf17 d_lut_CLKBUF1
ACLKBUF1_insert114 [clk_hier0_bF$buf5] clk_bF$buf18 d_lut_CLKBUF1
ACLKBUF1_insert113 [clk_hier0_bF$buf4] clk_bF$buf19 d_lut_CLKBUF1
ACLKBUF1_insert112 [clk_hier0_bF$buf3] clk_bF$buf20 d_lut_CLKBUF1
ACLKBUF1_insert111 [clk_hier0_bF$buf2] clk_bF$buf21 d_lut_CLKBUF1
ACLKBUF1_insert110 [clk_hier0_bF$buf1] clk_bF$buf22 d_lut_CLKBUF1
ACLKBUF1_insert109 [clk_hier0_bF$buf0] clk_bF$buf23 d_lut_CLKBUF1
ACLKBUF1_insert108 [clk_hier0_bF$buf7] clk_bF$buf24 d_lut_CLKBUF1
ACLKBUF1_insert107 [clk_hier0_bF$buf6] clk_bF$buf25 d_lut_CLKBUF1
ACLKBUF1_insert106 [clk_hier0_bF$buf5] clk_bF$buf26 d_lut_CLKBUF1
ACLKBUF1_insert105 [clk_hier0_bF$buf4] clk_bF$buf27 d_lut_CLKBUF1
ACLKBUF1_insert104 [clk_hier0_bF$buf3] clk_bF$buf28 d_lut_CLKBUF1
ACLKBUF1_insert103 [clk_hier0_bF$buf2] clk_bF$buf29 d_lut_CLKBUF1
ACLKBUF1_insert102 [clk_hier0_bF$buf1] clk_bF$buf30 d_lut_CLKBUF1
ACLKBUF1_insert101 [clk_hier0_bF$buf0] clk_bF$buf31 d_lut_CLKBUF1
ACLKBUF1_insert100 [clk_hier0_bF$buf7] clk_bF$buf32 d_lut_CLKBUF1
ACLKBUF1_insert99 [clk_hier0_bF$buf6] clk_bF$buf33 d_lut_CLKBUF1
ACLKBUF1_insert98 [clk_hier0_bF$buf5] clk_bF$buf34 d_lut_CLKBUF1
ACLKBUF1_insert97 [clk_hier0_bF$buf4] clk_bF$buf35 d_lut_CLKBUF1
ACLKBUF1_insert96 [clk_hier0_bF$buf3] clk_bF$buf36 d_lut_CLKBUF1
ACLKBUF1_insert95 [clk_hier0_bF$buf2] clk_bF$buf37 d_lut_CLKBUF1
ACLKBUF1_insert94 [clk_hier0_bF$buf1] clk_bF$buf38 d_lut_CLKBUF1
ACLKBUF1_insert93 [clk_hier0_bF$buf0] clk_bF$buf39 d_lut_CLKBUF1
ACLKBUF1_insert92 [clk_hier0_bF$buf7] clk_bF$buf40 d_lut_CLKBUF1
ACLKBUF1_insert91 [clk_hier0_bF$buf6] clk_bF$buf41 d_lut_CLKBUF1
ACLKBUF1_insert90 [clk_hier0_bF$buf5] clk_bF$buf42 d_lut_CLKBUF1
ACLKBUF1_insert89 [clk_hier0_bF$buf4] clk_bF$buf43 d_lut_CLKBUF1
ACLKBUF1_insert88 [clk_hier0_bF$buf3] clk_bF$buf44 d_lut_CLKBUF1
ACLKBUF1_insert87 [clk_hier0_bF$buf2] clk_bF$buf45 d_lut_CLKBUF1
ACLKBUF1_insert86 [clk_hier0_bF$buf1] clk_bF$buf46 d_lut_CLKBUF1
ACLKBUF1_insert85 [clk_hier0_bF$buf0] clk_bF$buf47 d_lut_CLKBUF1
ACLKBUF1_insert84 [clk_hier0_bF$buf7] clk_bF$buf48 d_lut_CLKBUF1
ACLKBUF1_insert83 [clk_hier0_bF$buf6] clk_bF$buf49 d_lut_CLKBUF1
ACLKBUF1_insert82 [clk_hier0_bF$buf5] clk_bF$buf50 d_lut_CLKBUF1
ACLKBUF1_insert81 [clk_hier0_bF$buf4] clk_bF$buf51 d_lut_CLKBUF1
ACLKBUF1_insert80 [clk_hier0_bF$buf3] clk_bF$buf52 d_lut_CLKBUF1
ACLKBUF1_insert79 [clk_hier0_bF$buf2] clk_bF$buf53 d_lut_CLKBUF1
ACLKBUF1_insert78 [clk_hier0_bF$buf1] clk_bF$buf54 d_lut_CLKBUF1
ACLKBUF1_insert77 [clk_hier0_bF$buf0] clk_bF$buf55 d_lut_CLKBUF1
ACLKBUF1_insert76 [clk_hier0_bF$buf7] clk_bF$buf56 d_lut_CLKBUF1
ACLKBUF1_insert75 [clk_hier0_bF$buf6] clk_bF$buf57 d_lut_CLKBUF1
ACLKBUF1_insert74 [clk_hier0_bF$buf5] clk_bF$buf58 d_lut_CLKBUF1
ACLKBUF1_insert73 [clk_hier0_bF$buf4] clk_bF$buf59 d_lut_CLKBUF1
ACLKBUF1_insert72 [clk_hier0_bF$buf3] clk_bF$buf60 d_lut_CLKBUF1
ACLKBUF1_insert71 [clk_hier0_bF$buf2] clk_bF$buf61 d_lut_CLKBUF1
ACLKBUF1_insert70 [clk_hier0_bF$buf1] clk_bF$buf62 d_lut_CLKBUF1
ACLKBUF1_insert69 [clk_hier0_bF$buf0] clk_bF$buf63 d_lut_CLKBUF1
ACLKBUF1_insert68 [clk_hier0_bF$buf7] clk_bF$buf64 d_lut_CLKBUF1
ACLKBUF1_insert67 [clk_hier0_bF$buf6] clk_bF$buf65 d_lut_CLKBUF1
ACLKBUF1_insert66 [clk_hier0_bF$buf5] clk_bF$buf66 d_lut_CLKBUF1
ACLKBUF1_insert65 [clk_hier0_bF$buf4] clk_bF$buf67 d_lut_CLKBUF1
ACLKBUF1_insert64 [clk_hier0_bF$buf3] clk_bF$buf68 d_lut_CLKBUF1
ACLKBUF1_insert63 [clk_hier0_bF$buf2] clk_bF$buf69 d_lut_CLKBUF1
ACLKBUF1_insert62 [clk_hier0_bF$buf1] clk_bF$buf70 d_lut_CLKBUF1
ACLKBUF1_insert61 [clk_hier0_bF$buf0] clk_bF$buf71 d_lut_CLKBUF1
ACLKBUF1_insert60 [clk_hier0_bF$buf7] clk_bF$buf72 d_lut_CLKBUF1
ACLKBUF1_insert59 [clk_hier0_bF$buf6] clk_bF$buf73 d_lut_CLKBUF1
ACLKBUF1_insert58 [clk_hier0_bF$buf5] clk_bF$buf74 d_lut_CLKBUF1
ACLKBUF1_insert57 [clk_hier0_bF$buf4] clk_bF$buf75 d_lut_CLKBUF1
ABUFX2_insert56 [_4569_] _4569__bF$buf0 d_lut_BUFX2
ABUFX2_insert55 [_4569_] _4569__bF$buf1 d_lut_BUFX2
ABUFX2_insert54 [_4569_] _4569__bF$buf2 d_lut_BUFX2
ABUFX2_insert53 [_4569_] _4569__bF$buf3 d_lut_BUFX2
ABUFX2_insert52 [_4569_] _4569__bF$buf4 d_lut_BUFX2
ABUFX2_insert51 [_4569_] _4569__bF$buf5 d_lut_BUFX2
ABUFX2_insert50 [\genblk1_5_.u_ce.Ain12b\_11_] \genblk1_5_.u_ce.Ain12b_11_bF$buf0\ d_lut_BUFX2
ABUFX2_insert49 [\genblk1_5_.u_ce.Ain12b\_11_] \genblk1_5_.u_ce.Ain12b_11_bF$buf1\ d_lut_BUFX2
ABUFX2_insert48 [\genblk1_5_.u_ce.Ain12b\_11_] \genblk1_5_.u_ce.Ain12b_11_bF$buf2\ d_lut_BUFX2
ABUFX2_insert47 [\genblk1_5_.u_ce.Ain12b\_11_] \genblk1_5_.u_ce.Ain12b_11_bF$buf3\ d_lut_BUFX2
ABUFX2_insert46 [\genblk1_5_.u_ce.Ain12b\_11_] \genblk1_5_.u_ce.Ain12b_11_bF$buf4\ d_lut_BUFX2
ABUFX2_insert45 [_1985_] _1985__bF$buf0 d_lut_BUFX2
ABUFX2_insert44 [_1985_] _1985__bF$buf1 d_lut_BUFX2
ABUFX2_insert43 [_1985_] _1985__bF$buf2 d_lut_BUFX2
ABUFX2_insert42 [_1985_] _1985__bF$buf3 d_lut_BUFX2
ABUFX2_insert41 [_1985_] _1985__bF$buf4 d_lut_BUFX2
ABUFX2_insert40 [_1985_] _1985__bF$buf5 d_lut_BUFX2
ABUFX2_insert39 [_191_] _191__bF$buf0 d_lut_BUFX2
ABUFX2_insert38 [_191_] _191__bF$buf1 d_lut_BUFX2
ABUFX2_insert37 [_191_] _191__bF$buf2 d_lut_BUFX2
ABUFX2_insert36 [_191_] _191__bF$buf3 d_lut_BUFX2
ABUFX2_insert35 [_3655_] _3655__bF$buf0 d_lut_BUFX2
ABUFX2_insert34 [_3655_] _3655__bF$buf1 d_lut_BUFX2
ABUFX2_insert33 [_3655_] _3655__bF$buf2 d_lut_BUFX2
ABUFX2_insert32 [_3655_] _3655__bF$buf3 d_lut_BUFX2
ABUFX2_insert31 [\genblk1_2_.u_ce.Vld\] \genblk1_2_.u_ce.Vld_bF$buf0\ d_lut_BUFX2
ABUFX2_insert30 [\genblk1_2_.u_ce.Vld\] \genblk1_2_.u_ce.Vld_bF$buf1\ d_lut_BUFX2
ABUFX2_insert29 [\genblk1_2_.u_ce.Vld\] \genblk1_2_.u_ce.Vld_bF$buf2\ d_lut_BUFX2
ABUFX2_insert28 [\genblk1_2_.u_ce.Vld\] \genblk1_2_.u_ce.Vld_bF$buf3\ d_lut_BUFX2
ABUFX2_insert27 [\genblk1_2_.u_ce.Vld\] \genblk1_2_.u_ce.Vld_bF$buf4\ d_lut_BUFX2
ABUFX2_insert26 [_253_] _253__bF$buf0 d_lut_BUFX2
ABUFX2_insert25 [_253_] _253__bF$buf1 d_lut_BUFX2
ABUFX2_insert24 [_253_] _253__bF$buf2 d_lut_BUFX2
ABUFX2_insert23 [_253_] _253__bF$buf3 d_lut_BUFX2
ABUFX2_insert22 [_253_] _253__bF$buf4 d_lut_BUFX2
ABUFX2_insert21 [_253_] _253__bF$buf5 d_lut_BUFX2
ABUFX2_insert20 [\genblk1_1_.u_ce.Ain12b\_11_] \genblk1_1_.u_ce.Ain12b_11_bF$buf0\ d_lut_BUFX2
ABUFX2_insert19 [\genblk1_1_.u_ce.Ain12b\_11_] \genblk1_1_.u_ce.Ain12b_11_bF$buf1\ d_lut_BUFX2
ABUFX2_insert18 [\genblk1_1_.u_ce.Ain12b\_11_] \genblk1_1_.u_ce.Ain12b_11_bF$buf2\ d_lut_BUFX2
ABUFX2_insert17 [\genblk1_1_.u_ce.Ain12b\_11_] \genblk1_1_.u_ce.Ain12b_11_bF$buf3\ d_lut_BUFX2
ABUFX2_insert16 [\genblk1_1_.u_ce.Ain12b\_11_] \genblk1_1_.u_ce.Ain12b_11_bF$buf4\ d_lut_BUFX2
ABUFX2_insert15 [_3717_] _3717__bF$buf0 d_lut_BUFX2
ABUFX2_insert14 [_3717_] _3717__bF$buf1 d_lut_BUFX2
ABUFX2_insert13 [_3717_] _3717__bF$buf2 d_lut_BUFX2
ABUFX2_insert12 [_3717_] _3717__bF$buf3 d_lut_BUFX2
ABUFX2_insert11 [_3717_] _3717__bF$buf4 d_lut_BUFX2
ABUFX2_insert10 [_3717_] _3717__bF$buf5 d_lut_BUFX2
ABUFX2_insert9 [_1057_] _1057__bF$buf0 d_lut_BUFX2
ABUFX2_insert8 [_1057_] _1057__bF$buf1 d_lut_BUFX2
ABUFX2_insert7 [_1057_] _1057__bF$buf2 d_lut_BUFX2
ABUFX2_insert6 [_1057_] _1057__bF$buf3 d_lut_BUFX2
ABUFX2_insert5 [_1119_] _1119__bF$buf0 d_lut_BUFX2
ABUFX2_insert4 [_1119_] _1119__bF$buf1 d_lut_BUFX2
ABUFX2_insert3 [_1119_] _1119__bF$buf2 d_lut_BUFX2
ABUFX2_insert2 [_1119_] _1119__bF$buf3 d_lut_BUFX2
ABUFX2_insert1 [_1119_] _1119__bF$buf4 d_lut_BUFX2
ABUFX2_insert0 [_1119_] _1119__bF$buf5 d_lut_BUFX2
A_10000_ [_3425_ _3419_] _3426_ d_lut_NOR2X1
A_10001_ [_3425_ _3419_] _3427_ d_lut_NAND2X1
A_10002_ [\genblk1_3_.u_ce.Vld_bF$buf4\ _3427_] _3428_ d_lut_NAND2X1
A_10003_ [_3426_ _3428_ _3418_] _2633_ d_lut_OAI21X1
A_10004_ [_3419_ _3421_ _3422_] _3429_ d_lut_AOI21X1
A_10005_ [\genblk1_3_.u_ce.Ain12b\_10_] _3430_ d_lut_INVX1
A_10006_ [\genblk1_3_.u_ce.Ain12b_11_bF$buf4\ _3430_] _3431_ d_lut_NAND2X1
A_10007_ [\genblk1_3_.u_ce.Ain12b\_10_ _2851__bF$buf5] _3432_ d_lut_NAND2X1
A_10008_ [_3431_ _3432_] _3433_ d_lut_NAND2X1
A_10009_ [_3429_ _3433_] _3434_ d_lut_AND2X2
A_10010_ [_3433_ _3429_ \genblk1_3_.u_ce.Vld_bF$buf3\] _3435_ d_lut_OAI21X1
A_10011_ [_2691_ \genblk1_3_.u_ce.Vld_bF$buf2\ _3435_ _3434_] _2634_ d_lut_OAI22X1
A_10012_ [\genblk1_3_.u_ce.Acalc\_11_ _2756__bF$buf4] _3436_ d_lut_NAND2X1
A_10013_ [_3433_ _3429_ _3432_] _3437_ d_lut_OAI21X1
A_10014_ [_2756__bF$buf3 _3437_ _3436_] _2635_ d_lut_OAI21X1
A_10015_ [_2690_] _3438_ d_lut_INVX1
A_10016_ [_2743_ \genblk1_3_.u_ce.LoadCtl\_5_ _2701_] _3439_ d_lut_NAND3X1
A_10017_ [_3438_ _3439_] _3440_ d_lut_NOR2X1
A_10018_ [\genblk1_2_.u_ce.X_\_0_ _3440_] _3441_ d_lut_NAND2X1
A_10019_ [_2885_ _3440_ _3441_] _2636_ d_lut_OAI21X1
A_10020_ [\genblk1_2_.u_ce.X_\_1_ _3440_] _3442_ d_lut_NAND2X1
A_10021_ [_2910_ _3440_ _3442_] _2637_ d_lut_OAI21X1
A_10022_ [\genblk1_2_.u_ce.X_\_0_] _3443_ d_lut_INVX1
A_10023_ [\genblk1_3_.u_ce.LoadCtl\_4_ _2690_ _2701_] _3444_ d_lut_NAND3X1
A_10024_ [\genblk1_3_.u_ce.Xin12b\_8_ _3444_] _3445_ d_lut_NAND2X1
A_10025_ [_3443_ _3444_ _3445_] _2638_ d_lut_OAI21X1
A_10026_ [\genblk1_2_.u_ce.X_\_1_] _3446_ d_lut_INVX1
A_10027_ [\genblk1_3_.u_ce.Xin12b\_9_ _3444_] _3447_ d_lut_NAND2X1
A_10028_ [_3446_ _3444_ _3447_] _2639_ d_lut_OAI21X1
A_10029_ [_2701_ _2697_] _3448_ d_lut_NAND2X1
A_10030_ [_2702_ _2710_ \genblk1_3_.u_ce.Xin12b\_6_] _3449_ d_lut_OAI21X1
A_10031_ [_3443_ _3448_ _3449_] _2640_ d_lut_OAI21X1
A_10032_ [_2702_ _2710_ \genblk1_3_.u_ce.Xin12b\_7_] _3450_ d_lut_OAI21X1
A_10033_ [_3446_ _3448_ _3450_] _2641_ d_lut_OAI21X1
A_10034_ [_2694_ _2702_] _3451_ d_lut_NOR2X1
A_10035_ [\genblk1_2_.u_ce.X_\_0_ _3451_] _3452_ d_lut_NAND2X1
A_10036_ [_2795_ _3451_ _3452_] _2642_ d_lut_OAI21X1
A_10037_ [\genblk1_2_.u_ce.X_\_1_ _3451_] _3453_ d_lut_NAND2X1
A_10038_ [_2803_ _3451_ _3453_] _2643_ d_lut_OAI21X1
A_10039_ [\genblk1_3_.u_ce.LoadCtl_0_bF$buf4\ _2703_ \genblk1_3_.u_ce.Xin1\_0_] _3454_ d_lut_OAI21X1
A_10040_ [_3443_ _2732_ _3454_] _2644_ d_lut_OAI21X1
A_10041_ [\genblk1_3_.u_ce.LoadCtl_0_bF$buf3\ _2703_ \genblk1_3_.u_ce.Xin1\_1_] _3455_ d_lut_OAI21X1
A_10042_ [_3446_ _2732_ _3455_] _2645_ d_lut_OAI21X1
A_10043_ [\genblk1_3_.u_ce.LoadCtl_0_bF$buf2\ \genblk1_2_.u_ce.X_\_0_] _3456_ d_lut_NAND2X1
A_10044_ [\genblk1_3_.u_ce.LoadCtl_0_bF$buf1\ _2818_ _3456_] _2646_ d_lut_OAI21X1
A_10045_ [\genblk1_3_.u_ce.LoadCtl_0_bF$buf0\ \genblk1_2_.u_ce.X_\_1_] _3457_ d_lut_NAND2X1
A_10046_ [\genblk1_3_.u_ce.LoadCtl_0_bF$buf4\ _2798_ _3457_] _2647_ d_lut_OAI21X1
A_10047_ [\genblk1_2_.u_ce.Y_\_0_ _3440_] _3458_ d_lut_NAND2X1
A_10048_ [_3018_ _3440_ _3458_] _2648_ d_lut_OAI21X1
A_10049_ [\genblk1_2_.u_ce.Y_\_1_ _3440_] _3459_ d_lut_NAND2X1
A_10050_ [_3042_ _3440_ _3459_] _2649_ d_lut_OAI21X1
A_10051_ [\genblk1_2_.u_ce.Y_\_0_] _3460_ d_lut_INVX1
A_10052_ [\genblk1_3_.u_ce.Yin12b\_8_ _3444_] _3461_ d_lut_NAND2X1
A_10053_ [_3460_ _3444_ _3461_] _2650_ d_lut_OAI21X1
A_10054_ [\genblk1_2_.u_ce.Y_\_1_] _3462_ d_lut_INVX1
A_10055_ [\genblk1_3_.u_ce.Yin12b\_9_ _3444_] _3463_ d_lut_NAND2X1
A_10056_ [_3462_ _3444_ _3463_] _2651_ d_lut_OAI21X1
A_10057_ [_2702_ _2710_ \genblk1_3_.u_ce.Yin12b\_6_] _2670_ d_lut_OAI21X1
A_10058_ [_3460_ _3448_ _2670_] _2652_ d_lut_OAI21X1
A_10059_ [_2702_ _2710_ \genblk1_3_.u_ce.Yin12b\_7_] _2671_ d_lut_OAI21X1
A_10060_ [_3462_ _3448_ _2671_] _2653_ d_lut_OAI21X1
A_10061_ [\genblk1_2_.u_ce.Y_\_0_ _3451_] _2672_ d_lut_NAND2X1
A_10062_ [_2883_ _3451_ _2672_] _2654_ d_lut_OAI21X1
A_10063_ [\genblk1_2_.u_ce.Y_\_1_ _3451_] _2673_ d_lut_NAND2X1
A_10064_ [_2908_ _3451_ _2673_] _2655_ d_lut_OAI21X1
A_10065_ [\genblk1_3_.u_ce.LoadCtl_0_bF$buf3\ _2703_ \genblk1_3_.u_ce.Yin1\_0_] _2674_ d_lut_OAI21X1
A_10066_ [_3460_ _2732_ _2674_] _2656_ d_lut_OAI21X1
A_10067_ [\genblk1_3_.u_ce.LoadCtl_0_bF$buf2\ _2703_ \genblk1_3_.u_ce.Yin1\_1_] _2675_ d_lut_OAI21X1
A_10068_ [_3462_ _2732_ _2675_] _2657_ d_lut_OAI21X1
A_10069_ [\genblk1_3_.u_ce.LoadCtl_0_bF$buf1\ \genblk1_2_.u_ce.Y_\_0_] _2676_ d_lut_NAND2X1
A_10070_ [\genblk1_3_.u_ce.LoadCtl_0_bF$buf0\ _3055_ _2676_] _2658_ d_lut_OAI21X1
A_10071_ [\genblk1_3_.u_ce.LoadCtl_0_bF$buf4\ \genblk1_2_.u_ce.Y_\_1_] _2677_ d_lut_NAND2X1
A_10072_ [\genblk1_3_.u_ce.LoadCtl_0_bF$buf3\ _2840_ _2677_] _2659_ d_lut_OAI21X1
A_10073_ [\a_3_\_0_ _3440_] _2678_ d_lut_NAND2X1
A_10074_ [_3430_ _3440_ _2678_] _2660_ d_lut_OAI21X1
A_10075_ [\a_3_\_1_ _3440_] _2679_ d_lut_NAND2X1
A_10076_ [_2851__bF$buf4 _3440_ _2679_] _2661_ d_lut_OAI21X1
A_10077_ [\a_3_\_0_] _2680_ d_lut_INVX1
A_10078_ [\genblk1_3_.u_ce.Ain12b\_8_ _3444_] _2681_ d_lut_NAND2X1
A_10079_ [_2680_ _3444_ _2681_] _2662_ d_lut_OAI21X1
A_10080_ [\a_3_\_1_] _2682_ d_lut_INVX1
A_10081_ [\genblk1_3_.u_ce.Ain12b\_9_ _3444_] _2683_ d_lut_NAND2X1
A_10082_ [_2682_ _3444_ _2683_] _2663_ d_lut_OAI21X1
A_10083_ [_2702_ _2710_ \genblk1_3_.u_ce.Ain12b\_6_] _2684_ d_lut_OAI21X1
A_10084_ [_2680_ _3448_ _2684_] _2664_ d_lut_OAI21X1
A_10085_ [_2702_ _2710_ \genblk1_3_.u_ce.Ain12b\_7_] _2685_ d_lut_OAI21X1
A_10086_ [_2682_ _3448_ _2685_] _2665_ d_lut_OAI21X1
A_10087_ [\a_3_\_0_ _3451_] _2686_ d_lut_NAND2X1
A_10088_ [_3354_ _3451_ _2686_] _2666_ d_lut_OAI21X1
A_10089_ [\a_3_\_1_ _3451_] _2687_ d_lut_NAND2X1
A_10090_ [_3368_ _3451_ _2687_] _2667_ d_lut_OAI21X1
A_10091_ [\genblk1_3_.u_ce.LoadCtl_0_bF$buf2\ _2703_ \genblk1_3_.u_ce.Ain1\_0_] _2688_ d_lut_OAI21X1
A_10092_ [_2680_ _2732_ _2688_] _2668_ d_lut_OAI21X1
A_10093_ [\genblk1_3_.u_ce.LoadCtl_0_bF$buf1\ _2703_ \genblk1_3_.u_ce.Ain1\_1_] _2689_ d_lut_OAI21X1
A_10094_ [_2682_ _2732_ _2689_] _2669_ d_lut_OAI21X1
A_10095_ _2598_ clk_bF$buf75 NULL NULL \genblk1_3_.u_ce.Ain0\_0_ NULL ddflop
A_10096_ _2599_ clk_bF$buf74 NULL NULL \genblk1_3_.u_ce.Ain0\_1_ NULL ddflop
A_10097_ _2600_ clk_bF$buf73 NULL NULL \genblk1_3_.u_ce.Ycalc\_2_ NULL ddflop
A_10098_ _2601_ clk_bF$buf72 NULL NULL \genblk1_3_.u_ce.Ycalc\_3_ NULL ddflop
A_10099_ _2602_ clk_bF$buf71 NULL NULL \genblk1_3_.u_ce.Ycalc\_4_ NULL ddflop
A_10100_ _2603_ clk_bF$buf70 NULL NULL \genblk1_3_.u_ce.Ycalc\_5_ NULL ddflop
A_10101_ _2604_ clk_bF$buf69 NULL NULL \genblk1_3_.u_ce.Ycalc\_6_ NULL ddflop
A_10102_ _2605_ clk_bF$buf68 NULL NULL \genblk1_3_.u_ce.Ycalc\_7_ NULL ddflop