* NGSPICE file created from phase_accumulator.ext - technology: scmos

* Black-box entry subcircuit for FILL abstract view
.subckt FILL vdd gnd
.ends

* Black-box entry subcircuit for OAI21X1 abstract view
.subckt OAI21X1 A B C Y vdd gnd
.ends

* Black-box entry subcircuit for INVX1 abstract view
.subckt INVX1 A Y vdd gnd
.ends

* Black-box entry subcircuit for NAND2X1 abstract view
.subckt NAND2X1 A B Y vdd gnd
.ends

* Black-box entry subcircuit for DFFPOSX1 abstract view
.subckt DFFPOSX1 D CLK Q vdd gnd
.ends

* Black-box entry subcircuit for AOI21X1 abstract view
.subckt AOI21X1 A B C Y vdd gnd
.ends

* Black-box entry subcircuit for AND2X2 abstract view
.subckt AND2X2 A B Y vdd gnd
.ends

* Black-box entry subcircuit for NAND3X1 abstract view
.subckt NAND3X1 A B C Y vdd gnd
.ends

* Black-box entry subcircuit for OR2X2 abstract view
.subckt OR2X2 A B Y vdd gnd
.ends

* Black-box entry subcircuit for NOR2X1 abstract view
.subckt NOR2X1 A B Y vdd gnd
.ends

* Black-box entry subcircuit for BUFX2 abstract view
.subckt BUFX2 A Y vdd gnd
.ends

* Black-box entry subcircuit for AOI22X1 abstract view
.subckt AOI22X1 A B C D Y vdd gnd
.ends

* Black-box entry subcircuit for CLKBUF1 abstract view
.subckt CLKBUF1 A Y vdd gnd
.ends

* Black-box entry subcircuit for INVX2 abstract view
.subckt INVX2 A Y vdd gnd
.ends

* Black-box entry subcircuit for INVX8 abstract view
.subckt INVX8 A Y vdd gnd
.ends

.subckt phase_accumulator gnd vdd Aout[1] Aout[0] En FCW[19] FCW[18] FCW[17] FCW[16]
+ FCW[15] FCW[14] FCW[13] FCW[12] FCW[11] FCW[10] FCW[9] FCW[8] FCW[7] FCW[6] FCW[5]
+ FCW[4] FCW[3] FCW[2] FCW[1] FCW[0] ISout Vld clk
XFILL_5__370_ vdd gnd FILL
XFILL_7__317_ vdd gnd FILL
XFILL_8__581_ vdd gnd FILL
XFILL_2__426_ vdd gnd FILL
XFILL_2__357_ vdd gnd FILL
XFILL_5__568_ vdd gnd FILL
XFILL_5__499_ vdd gnd FILL
X_501_ _501_/A _538_/B _513_/C _502_/B vdd gnd OAI21X1
X_432_ _649_/Q _440_/B _534_/B _433_/C vdd gnd OAI21X1
X_363_ _363_/A _364_/A vdd gnd INVX1
XFILL_6__404_ vdd gnd FILL
XFILL_6__335_ vdd gnd FILL
XFILL_1__375_ vdd gnd FILL
XFILL_1__444_ vdd gnd FILL
XFILL_1__513_ vdd gnd FILL
XFILL_4__586_ vdd gnd FILL
XFILL_5__422_ vdd gnd FILL
XFILL_5__353_ vdd gnd FILL
XFILL_6_CLKBUF1_insert1 vdd gnd FILL
XFILL_8__495_ vdd gnd FILL
XFILL_0__462_ vdd gnd FILL
XFILL_0__600_ vdd gnd FILL
XFILL_0__531_ vdd gnd FILL
XFILL_7_BUFX2_insert7 vdd gnd FILL
XFILL_0__393_ vdd gnd FILL
XFILL_2__409_ vdd gnd FILL
X_415_ _427_/B _427_/A _416_/C vdd gnd NAND2X1
X_346_ _350_/B _346_/B _348_/A vdd gnd NAND2X1
XFILL_4__440_ vdd gnd FILL
XFILL_4__371_ vdd gnd FILL
XFILL_6__318_ vdd gnd FILL
XFILL_7__582_ vdd gnd FILL
XFILL_1__427_ vdd gnd FILL
XFILL_1__358_ vdd gnd FILL
XFILL_4__569_ vdd gnd FILL
XFILL_5__405_ vdd gnd FILL
XFILL_5__336_ vdd gnd FILL
XFILL_8__547_ vdd gnd FILL
XFILL_8__616_ vdd gnd FILL
XFILL_8__478_ vdd gnd FILL
XFILL_0__445_ vdd gnd FILL
XFILL_0__514_ vdd gnd FILL
XFILL_0__376_ vdd gnd FILL
XFILL_3__587_ vdd gnd FILL
X_329_ _329_/A _329_/B _330_/B vdd gnd NAND2X1
XFILL_4__423_ vdd gnd FILL
XFILL_4__354_ vdd gnd FILL
XFILL_7__565_ vdd gnd FILL
XFILL_7__496_ vdd gnd FILL
XFILL74250x39750 vdd gnd FILL
XFILL_8__401_ vdd gnd FILL
XFILL_8__332_ vdd gnd FILL
XFILL_3__510_ vdd gnd FILL
XFILL_3__441_ vdd gnd FILL
XFILL_3__372_ vdd gnd FILL
XFILL_5__319_ vdd gnd FILL
XFILL_6__583_ vdd gnd FILL
XFILL_0__359_ vdd gnd FILL
XFILL_0__428_ vdd gnd FILL
XFILL_7__350_ vdd gnd FILL
XFILL_2__390_ vdd gnd FILL
XFILL_4__406_ vdd gnd FILL
XFILL_4__337_ vdd gnd FILL
XFILL74250x14550 vdd gnd FILL
XFILL74850x18150 vdd gnd FILL
XFILL_7__548_ vdd gnd FILL
XFILL74850x61350 vdd gnd FILL
XFILL_7__617_ vdd gnd FILL
XFILL_7__479_ vdd gnd FILL
XFILL_2__588_ vdd gnd FILL
XFILL_6_BUFX2_insert16 vdd gnd FILL
X_663_ _663_/D _663_/CLK _663_/Q vdd gnd DFFPOSX1
XFILL_3__424_ vdd gnd FILL
X_594_ _594_/A _594_/B _594_/C _638_/D vdd gnd AOI21X1
XFILL_6__566_ vdd gnd FILL
XFILL_3__355_ vdd gnd FILL
XFILL75750x46950 vdd gnd FILL
XFILL_6__497_ vdd gnd FILL
XFILL_7__402_ vdd gnd FILL
XFILL_7__333_ vdd gnd FILL
XFILL_2__511_ vdd gnd FILL
XFILL_2__373_ vdd gnd FILL
XFILL_2__442_ vdd gnd FILL
XFILL_5__584_ vdd gnd FILL
XFILL_6__420_ vdd gnd FILL
XFILL_6__351_ vdd gnd FILL
XFILL_3__407_ vdd gnd FILL
XFILL_1__391_ vdd gnd FILL
X_646_ _646_/D _664_/CLK _646_/Q vdd gnd DFFPOSX1
XFILL_1__460_ vdd gnd FILL
X_577_ _637_/Q FCW[4] _625_/B vdd gnd AND2X2
XFILL75750x21750 vdd gnd FILL
XFILL_6__549_ vdd gnd FILL
XFILL_3__338_ vdd gnd FILL
XFILL_6__618_ vdd gnd FILL
XFILL_1_CLKBUF1_insert0 vdd gnd FILL
XFILL_2_BUFX2_insert14 vdd gnd FILL
XFILL_7__316_ vdd gnd FILL
XFILL_8__580_ vdd gnd FILL
XFILL_1__589_ vdd gnd FILL
XFILL_2__425_ vdd gnd FILL
X_500_ _663_/Q _538_/B _513_/C vdd gnd NAND2X1
XFILL_2__356_ vdd gnd FILL
XFILL_5__567_ vdd gnd FILL
XFILL_5__498_ vdd gnd FILL
X_362_ _362_/A _362_/B _362_/C _410_/B vdd gnd NAND3X1
X_431_ _431_/A _431_/B _433_/A vdd gnd NAND2X1
XFILL_6__403_ vdd gnd FILL
XFILL_6__334_ vdd gnd FILL
X_629_ _629_/D _663_/CLK _629_/Q vdd gnd DFFPOSX1
XFILL_1__512_ vdd gnd FILL
XFILL75450x68550 vdd gnd FILL
XFILL_1__374_ vdd gnd FILL
XFILL_1__443_ vdd gnd FILL
XFILL_4__585_ vdd gnd FILL
XFILL_5__352_ vdd gnd FILL
XFILL_5__421_ vdd gnd FILL
XFILL_8__563_ vdd gnd FILL
XFILL_8__494_ vdd gnd FILL
XFILL_6_CLKBUF1_insert2 vdd gnd FILL
XFILL_0__461_ vdd gnd FILL
XFILL_0__392_ vdd gnd FILL
XFILL_0__530_ vdd gnd FILL
XFILL_2__408_ vdd gnd FILL
XFILL_7_BUFX2_insert8 vdd gnd FILL
XFILL_2__339_ vdd gnd FILL
XFILL_5__619_ vdd gnd FILL
X_414_ _414_/A _414_/B _414_/C _427_/B vdd gnd AOI21X1
X_345_ _345_/A _362_/B _346_/B vdd gnd OR2X2
XFILL_4__370_ vdd gnd FILL
XFILL75450x43350 vdd gnd FILL
XFILL_6__317_ vdd gnd FILL
XFILL_7__581_ vdd gnd FILL
XFILL_1__426_ vdd gnd FILL
XFILL_1__357_ vdd gnd FILL
XFILL_4__568_ vdd gnd FILL
XFILL_4__499_ vdd gnd FILL
XFILL_5__404_ vdd gnd FILL
XFILL_5__335_ vdd gnd FILL
XFILL_8__546_ vdd gnd FILL
XFILL_8__477_ vdd gnd FILL
XFILL_0__375_ vdd gnd FILL
XFILL_0__444_ vdd gnd FILL
XFILL_0__513_ vdd gnd FILL
XFILL_3__586_ vdd gnd FILL
X_328_ FCW[9] _329_/B vdd gnd INVX1
XFILL_4__422_ vdd gnd FILL
XFILL_4__353_ vdd gnd FILL
XFILL_7__564_ vdd gnd FILL
XFILL_7__495_ vdd gnd FILL
XFILL_8__400_ vdd gnd FILL
XFILL_1__409_ vdd gnd FILL
XFILL_8__331_ vdd gnd FILL
XFILL_3__371_ vdd gnd FILL
XFILL_3__440_ vdd gnd FILL
XFILL_5__318_ vdd gnd FILL
XFILL_6__582_ vdd gnd FILL
XFILL_8__529_ vdd gnd FILL
XFILL_0__427_ vdd gnd FILL
XFILL_0__358_ vdd gnd FILL
XFILL_3__569_ vdd gnd FILL
XFILL_4__405_ vdd gnd FILL
XFILL_4__336_ vdd gnd FILL
XFILL_7__547_ vdd gnd FILL
XFILL_7__616_ vdd gnd FILL
XFILL_7__478_ vdd gnd FILL
XFILL_2__587_ vdd gnd FILL
XFILL_8__314_ vdd gnd FILL
X_662_ _662_/D _662_/CLK _662_/Q vdd gnd DFFPOSX1
XFILL_3__423_ vdd gnd FILL
XFILL_3__354_ vdd gnd FILL
X_593_ _638_/Q _609_/B _608_/C _594_/C vdd gnd OAI21X1
XFILL_6_BUFX2_insert17 vdd gnd FILL
XFILL_6__565_ vdd gnd FILL
XFILL_6__496_ vdd gnd FILL
XFILL_7__401_ vdd gnd FILL
XFILL_7__332_ vdd gnd FILL
XFILL_2__510_ vdd gnd FILL
XFILL_2__441_ vdd gnd FILL
XFILL_2__372_ vdd gnd FILL
XFILL_4__319_ vdd gnd FILL
XFILL_5__583_ vdd gnd FILL
XFILL76050x25350 vdd gnd FILL
XFILL_6__350_ vdd gnd FILL
X_645_ _645_/D _664_/CLK _645_/Q vdd gnd DFFPOSX1
XFILL_1__390_ vdd gnd FILL
XFILL_3__406_ vdd gnd FILL
X_576_ _580_/B _580_/A _579_/C vdd gnd AND2X2
XFILL_3__337_ vdd gnd FILL
XFILL_1_CLKBUF1_insert1 vdd gnd FILL
XFILL_6__548_ vdd gnd FILL
XFILL_6__479_ vdd gnd FILL
XFILL_6__617_ vdd gnd FILL
XFILL_2_BUFX2_insert15 vdd gnd FILL
XFILL_7__315_ vdd gnd FILL
XFILL_1__588_ vdd gnd FILL
XFILL_2__424_ vdd gnd FILL
XFILL_5__566_ vdd gnd FILL
XFILL_2__355_ vdd gnd FILL
XFILL73350x39750 vdd gnd FILL
XFILL_5__497_ vdd gnd FILL
X_430_ _443_/B _430_/B _444_/B _431_/A vdd gnd OAI21X1
X_361_ _362_/B _362_/C _361_/C _426_/A vdd gnd NAND3X1
XFILL_6__402_ vdd gnd FILL
XFILL_6__333_ vdd gnd FILL
XFILL_1__511_ vdd gnd FILL
XFILL_1__442_ vdd gnd FILL
X_628_ _628_/D _656_/CLK _628_/Q vdd gnd DFFPOSX1
XFILL_1__373_ vdd gnd FILL
X_559_ _573_/B _573_/A _569_/B vdd gnd AND2X2
XFILL_4__584_ vdd gnd FILL
XFILL_5__420_ vdd gnd FILL
XFILL_5__351_ vdd gnd FILL
XFILL_6_CLKBUF1_insert3 vdd gnd FILL
XFILL_8__562_ vdd gnd FILL
XFILL_7_BUFX2_insert9 vdd gnd FILL
XFILL73950x18150 vdd gnd FILL
XFILL_2__407_ vdd gnd FILL
XFILL_0__391_ vdd gnd FILL
XFILL_0__460_ vdd gnd FILL
XFILL_2__338_ vdd gnd FILL
XFILL_5__549_ vdd gnd FILL
XFILL73950x61350 vdd gnd FILL
X_413_ _413_/A _413_/B _413_/C _427_/A vdd gnd NAND3X1
XFILL_5__618_ vdd gnd FILL
X_344_ _362_/B _345_/A _350_/B vdd gnd NAND2X1
XFILL_6__316_ vdd gnd FILL
XFILL_7__580_ vdd gnd FILL
XFILL_0__589_ vdd gnd FILL
XFILL_1__425_ vdd gnd FILL
XFILL_1__356_ vdd gnd FILL
XFILL_4__567_ vdd gnd FILL
XFILL_4__498_ vdd gnd FILL
XFILL_5__403_ vdd gnd FILL
XFILL_5__334_ vdd gnd FILL
XFILL_8__614_ vdd gnd FILL
XFILL_8__476_ vdd gnd FILL
XFILL_0__512_ vdd gnd FILL
XFILL_0__374_ vdd gnd FILL
XFILL_0__443_ vdd gnd FILL
XFILL_3__585_ vdd gnd FILL
X_327_ _642_/Q _329_/A vdd gnd INVX1
XFILL_4__352_ vdd gnd FILL
XFILL_4__421_ vdd gnd FILL
XFILL_7__563_ vdd gnd FILL
XFILL_7__494_ vdd gnd FILL
XFILL74850x21750 vdd gnd FILL
XFILL_1__408_ vdd gnd FILL
XFILL_8__330_ vdd gnd FILL
XFILL_1__339_ vdd gnd FILL
XFILL_4__619_ vdd gnd FILL
XFILL_3__370_ vdd gnd FILL
XFILL_5__317_ vdd gnd FILL
XFILL_8__528_ vdd gnd FILL
XFILL_6__581_ vdd gnd FILL
XFILL_8__459_ vdd gnd FILL
XFILL_0__426_ vdd gnd FILL
XFILL_0__357_ vdd gnd FILL
XFILL_3__568_ vdd gnd FILL
XFILL_3__499_ vdd gnd FILL
XFILL_4__404_ vdd gnd FILL
XFILL_4__335_ vdd gnd FILL
XFILL_7__615_ vdd gnd FILL
XFILL74550x68550 vdd gnd FILL
XFILL_7__546_ vdd gnd FILL
XFILL_7__477_ vdd gnd FILL
XFILL_8__313_ vdd gnd FILL
XFILL_2__586_ vdd gnd FILL
X_661_ _661_/D _662_/CLK _661_/Q vdd gnd DFFPOSX1
X_592_ _592_/A _592_/B _594_/A vdd gnd NOR2X1
XFILL_6_BUFX2_insert18 vdd gnd FILL
XFILL_3__422_ vdd gnd FILL
XFILL_3__353_ vdd gnd FILL
XFILL_6__564_ vdd gnd FILL
XFILL_6__495_ vdd gnd FILL
XFILL_0__409_ vdd gnd FILL
XFILL_7__400_ vdd gnd FILL
XFILL_7__331_ vdd gnd FILL
XFILL_2__371_ vdd gnd FILL
XFILL_2__440_ vdd gnd FILL
XFILL_4__318_ vdd gnd FILL
XFILL_5__582_ vdd gnd FILL
XFILL_7__529_ vdd gnd FILL
XFILL_2__569_ vdd gnd FILL
X_575_ _575_/A _575_/B _575_/C _580_/A vdd gnd AOI21X1
X_644_ _644_/D _655_/CLK _644_/Q vdd gnd DFFPOSX1
XFILL_3__405_ vdd gnd FILL
XFILL_1_CLKBUF1_insert2 vdd gnd FILL
XFILL75450x28950 vdd gnd FILL
XFILL_3__336_ vdd gnd FILL
XFILL_6__616_ vdd gnd FILL
XFILL_6__547_ vdd gnd FILL
XFILL_2_BUFX2_insert16 vdd gnd FILL
XFILL_6__478_ vdd gnd FILL
XFILL_1__587_ vdd gnd FILL
XFILL_7__314_ vdd gnd FILL
XFILL75150x150 vdd gnd FILL
XFILL_2__423_ vdd gnd FILL
XFILL_2__354_ vdd gnd FILL
XFILL_5__496_ vdd gnd FILL
XFILL_5__565_ vdd gnd FILL
X_360_ _360_/A _360_/B _361_/C vdd gnd NOR2X1
XFILL_6__401_ vdd gnd FILL
XFILL_6__332_ vdd gnd FILL
X_558_ _558_/A _575_/B _573_/B vdd gnd NOR2X1
XFILL_4_BUFX2_insert6 vdd gnd FILL
XFILL_1__510_ vdd gnd FILL
XFILL_1__441_ vdd gnd FILL
X_627_ _627_/D _656_/CLK _627_/Q vdd gnd DFFPOSX1
XFILL_1__372_ vdd gnd FILL
XFILL_3__319_ vdd gnd FILL
XFILL_4__583_ vdd gnd FILL
X_489_ _650_/Q _592_/A _534_/B _490_/C vdd gnd OAI21X1
XFILL_5__350_ vdd gnd FILL
XFILL_8__561_ vdd gnd FILL
XFILL_8__492_ vdd gnd FILL
XFILL_6_CLKBUF1_insert4 vdd gnd FILL
XFILL_0__390_ vdd gnd FILL
XFILL_2__406_ vdd gnd FILL
XFILL_2__337_ vdd gnd FILL
XFILL_5__548_ vdd gnd FILL
X_412_ _412_/A _412_/B _416_/A vdd gnd AND2X2
XFILL_5__479_ vdd gnd FILL
XFILL_5__617_ vdd gnd FILL
X_343_ _343_/A _364_/B _362_/B vdd gnd NOR2X1
XFILL_0__588_ vdd gnd FILL
XFILL_6__315_ vdd gnd FILL
XFILL_5_BUFX2_insert20 vdd gnd FILL
XFILL_1__424_ vdd gnd FILL
XFILL_1__355_ vdd gnd FILL
XFILL_4__566_ vdd gnd FILL
XFILL_4__497_ vdd gnd FILL
XFILL_5__402_ vdd gnd FILL
XFILL_5__333_ vdd gnd FILL
XFILL_8__544_ vdd gnd FILL
XFILL_8__613_ vdd gnd FILL
XFILL_0__511_ vdd gnd FILL
XFILL_0__442_ vdd gnd FILL
XFILL_0__373_ vdd gnd FILL
XFILL_3__584_ vdd gnd FILL
X_326_ _642_/Q FCW[9] _337_/C vdd gnd NAND2X1
XFILL_4__420_ vdd gnd FILL
XFILL75150x25350 vdd gnd FILL
XFILL_7__562_ vdd gnd FILL
XFILL_4__351_ vdd gnd FILL
XFILL_7__493_ vdd gnd FILL
XFILL_1__407_ vdd gnd FILL
XFILL_1__338_ vdd gnd FILL
XFILL_4__549_ vdd gnd FILL
XFILL_4__618_ vdd gnd FILL
XFILL_5__316_ vdd gnd FILL
XFILL_8__527_ vdd gnd FILL
XFILL_8__458_ vdd gnd FILL
XFILL_6__580_ vdd gnd FILL
XFILL_8__389_ vdd gnd FILL
XFILL_0__425_ vdd gnd FILL
XFILL_3__567_ vdd gnd FILL
XFILL_0__356_ vdd gnd FILL
XFILL_3__498_ vdd gnd FILL
XFILL_4__403_ vdd gnd FILL
XFILL_4__334_ vdd gnd FILL
XFILL_7__545_ vdd gnd FILL
XFILL_7__614_ vdd gnd FILL
XFILL_7__476_ vdd gnd FILL
XFILL_2__585_ vdd gnd FILL
X_660_ _660_/D _663_/CLK _660_/Q vdd gnd DFFPOSX1
XFILL_6_BUFX2_insert19 vdd gnd FILL
X_591_ _618_/B _591_/B _592_/B vdd gnd NOR2X1
XFILL_3__421_ vdd gnd FILL
XFILL_3__352_ vdd gnd FILL
XFILL_6__563_ vdd gnd FILL
XFILL_6__494_ vdd gnd FILL
XFILL_0__408_ vdd gnd FILL
XFILL_0__339_ vdd gnd FILL
XFILL_7__330_ vdd gnd FILL
XFILL_3__619_ vdd gnd FILL
XFILL_2__370_ vdd gnd FILL
XFILL_4__317_ vdd gnd FILL
XFILL_7__528_ vdd gnd FILL
XFILL_5__581_ vdd gnd FILL
XFILL_7__459_ vdd gnd FILL
XFILL_2__568_ vdd gnd FILL
XFILL_2__499_ vdd gnd FILL
XFILL_3__404_ vdd gnd FILL
X_574_ _574_/A _575_/A vdd gnd INVX1
X_643_ _643_/D _655_/CLK _643_/Q vdd gnd DFFPOSX1
XFILL_1_CLKBUF1_insert3 vdd gnd FILL
XFILL_3__335_ vdd gnd FILL
XFILL_6__615_ vdd gnd FILL
XFILL_6__546_ vdd gnd FILL
XFILL_6__477_ vdd gnd FILL
XFILL_2_BUFX2_insert17 vdd gnd FILL
XFILL_7__313_ vdd gnd FILL
XFILL_1__586_ vdd gnd FILL
XFILL_2__422_ vdd gnd FILL
XFILL_2__353_ vdd gnd FILL
XFILL_5__564_ vdd gnd FILL
XFILL_5__495_ vdd gnd FILL
XFILL_6__400_ vdd gnd FILL
XFILL_6__331_ vdd gnd FILL
XFILL_1__371_ vdd gnd FILL
X_557_ _635_/Q FCW[2] _558_/A vdd gnd NOR2X1
X_626_ _626_/D _656_/CLK _626_/Q vdd gnd DFFPOSX1
XFILL_4_BUFX2_insert7 vdd gnd FILL
XFILL_1__440_ vdd gnd FILL
X_488_ _501_/A _592_/A _488_/C _661_/D vdd gnd AOI21X1
XFILL_6__529_ vdd gnd FILL
XFILL_3__318_ vdd gnd FILL
XFILL_4__582_ vdd gnd FILL
XFILL_6_CLKBUF1_insert5 vdd gnd FILL
XFILL_8__560_ vdd gnd FILL
XFILL_1__569_ vdd gnd FILL
XFILL_8__491_ vdd gnd FILL
XFILL_2__405_ vdd gnd FILL
XFILL_2__336_ vdd gnd FILL
XFILL_5__616_ vdd gnd FILL
XFILL_5__547_ vdd gnd FILL
X_411_ _411_/A _411_/B _412_/A vdd gnd NOR2X1
X_342_ _643_/Q FCW[10] _343_/A vdd gnd NOR2X1
XFILL_5__478_ vdd gnd FILL
XFILL_0__587_ vdd gnd FILL
XFILL_6__314_ vdd gnd FILL
X_609_ _609_/A _609_/B _609_/C _639_/D vdd gnd AOI21X1
XFILL_1__423_ vdd gnd FILL
XFILL_5_BUFX2_insert10 vdd gnd FILL
XFILL_1__354_ vdd gnd FILL
XFILL_4__496_ vdd gnd FILL
XFILL_4__565_ vdd gnd FILL
XFILL_5__401_ vdd gnd FILL
XFILL_5__332_ vdd gnd FILL
XFILL_8__612_ vdd gnd FILL
XFILL_8__543_ vdd gnd FILL
XFILL_8__474_ vdd gnd FILL
XFILL_0__372_ vdd gnd FILL
XFILL_0__510_ vdd gnd FILL
XFILL_0__441_ vdd gnd FILL
XFILL_2__319_ vdd gnd FILL
XFILL_3__583_ vdd gnd FILL
X_325_ _360_/A _417_/A _337_/A _332_/B vdd gnd OAI21X1
XFILL_4__350_ vdd gnd FILL
XFILL_7__561_ vdd gnd FILL
XFILL_7__492_ vdd gnd FILL
XFILL_1__406_ vdd gnd FILL
XFILL74550x28950 vdd gnd FILL
XFILL_1__337_ vdd gnd FILL
XFILL_4__548_ vdd gnd FILL
XFILL_4__479_ vdd gnd FILL
XFILL_4__617_ vdd gnd FILL
XFILL_5__315_ vdd gnd FILL
XFILL_8__388_ vdd gnd FILL
XFILL_8__457_ vdd gnd FILL
XFILL_0__424_ vdd gnd FILL
XFILL_0__355_ vdd gnd FILL
XFILL_3__566_ vdd gnd FILL
XFILL_3__497_ vdd gnd FILL
XFILL_4__402_ vdd gnd FILL
XFILL_4__333_ vdd gnd FILL
XFILL_7__544_ vdd gnd FILL
XFILL_7__613_ vdd gnd FILL
XFILL_7__475_ vdd gnd FILL
XFILL_2__584_ vdd gnd FILL
XFILL_3__420_ vdd gnd FILL
X_590_ _618_/B _591_/B _594_/B vdd gnd NAND2X1
XFILL_3__351_ vdd gnd FILL
XFILL_6__562_ vdd gnd FILL
XFILL_6__493_ vdd gnd FILL
XFILL_8__509_ vdd gnd FILL
XFILL_0__407_ vdd gnd FILL
XFILL_0__338_ vdd gnd FILL
XFILL_3__549_ vdd gnd FILL
XFILL_3__618_ vdd gnd FILL
XFILL_4__316_ vdd gnd FILL
XFILL_7__527_ vdd gnd FILL
XFILL_7__458_ vdd gnd FILL
XFILL_5__580_ vdd gnd FILL
XFILL_7__389_ vdd gnd FILL
XFILL_2__567_ vdd gnd FILL
XFILL_2__498_ vdd gnd FILL
X_642_ _642_/D _655_/CLK _642_/Q vdd gnd DFFPOSX1
XFILL_3__403_ vdd gnd FILL
X_573_ _573_/A _573_/B _573_/C _580_/B vdd gnd NAND3X1
XFILL_3__334_ vdd gnd FILL
XFILL_6__545_ vdd gnd FILL
XFILL_1_CLKBUF1_insert4 vdd gnd FILL
XFILL_6__614_ vdd gnd FILL
XFILL_6__476_ vdd gnd FILL
XFILL_2_BUFX2_insert18 vdd gnd FILL
XFILL_1__585_ vdd gnd FILL
XFILL74250x25350 vdd gnd FILL
XFILL_2__421_ vdd gnd FILL
XFILL_2__352_ vdd gnd FILL
XFILL_5__563_ vdd gnd FILL
XFILL_5__494_ vdd gnd FILL
XFILL_6__330_ vdd gnd FILL
XFILL_2__619_ vdd gnd FILL
X_625_ _625_/A _625_/B _625_/C _625_/Y vdd gnd AOI21X1
XFILL_1__370_ vdd gnd FILL
X_556_ _635_/Q FCW[2] _575_/B vdd gnd AND2X2
XFILL_4_BUFX2_insert8 vdd gnd FILL
XFILL_3__317_ vdd gnd FILL
X_487_ _649_/Q _592_/A _608_/C _488_/C vdd gnd OAI21X1
XFILL75750x57750 vdd gnd FILL
XFILL_6__528_ vdd gnd FILL
XFILL_6__459_ vdd gnd FILL
XFILL_4__581_ vdd gnd FILL
XFILL_1__568_ vdd gnd FILL
XFILL_1__499_ vdd gnd FILL
XFILL_8__490_ vdd gnd FILL
XFILL_2__404_ vdd gnd FILL
XFILL_5__546_ vdd gnd FILL
XFILL_2__335_ vdd gnd FILL
XFILL_5__615_ vdd gnd FILL
XFILL_5__477_ vdd gnd FILL
X_341_ _643_/Q FCW[10] _364_/B vdd gnd AND2X2
X_410_ _410_/A _410_/B _416_/B vdd gnd NAND2X1
XFILL_6__313_ vdd gnd FILL
XFILL_0__586_ vdd gnd FILL
XFILL_1__422_ vdd gnd FILL
X_608_ _639_/Q _609_/B _608_/C _609_/C vdd gnd OAI21X1
X_539_ _539_/A _563_/C _632_/D vdd gnd NOR2X1
XFILL_5_BUFX2_insert11 vdd gnd FILL
XFILL_1__353_ vdd gnd FILL
XFILL_4__564_ vdd gnd FILL
XFILL_4__495_ vdd gnd FILL
XFILL_5__400_ vdd gnd FILL
XFILL_5__331_ vdd gnd FILL
XFILL_8__542_ vdd gnd FILL
XFILL_8__473_ vdd gnd FILL
XFILL_0__371_ vdd gnd FILL
XFILL_2__318_ vdd gnd FILL
XFILL_0__440_ vdd gnd FILL
XFILL_5__529_ vdd gnd FILL
XFILL_3__582_ vdd gnd FILL
X_324_ _324_/A _440_/B _324_/C _641_/D vdd gnd AOI21X1
XFILL_7__560_ vdd gnd FILL
XFILL_0__569_ vdd gnd FILL
XFILL_7__491_ vdd gnd FILL
XFILL_1__405_ vdd gnd FILL
XFILL_1__336_ vdd gnd FILL
XFILL_4__616_ vdd gnd FILL
XFILL_4__547_ vdd gnd FILL
XFILL_1_BUFX2_insert20 vdd gnd FILL
XFILL_4__478_ vdd gnd FILL
XFILL_8__525_ vdd gnd FILL
XFILL_5__314_ vdd gnd FILL
XFILL_8__387_ vdd gnd FILL
XFILL_0__423_ vdd gnd FILL
XFILL_0__354_ vdd gnd FILL
XFILL_3__496_ vdd gnd FILL
XFILL_3__565_ vdd gnd FILL
XFILL_4__401_ vdd gnd FILL
XFILL75450x54150 vdd gnd FILL
XFILL_4__332_ vdd gnd FILL
XFILL_7__612_ vdd gnd FILL
XFILL_7__543_ vdd gnd FILL
XFILL_7__474_ vdd gnd FILL
XFILL_1__319_ vdd gnd FILL
XFILL_2__583_ vdd gnd FILL
XFILL_3__350_ vdd gnd FILL
XFILL_6__561_ vdd gnd FILL
XFILL_6__492_ vdd gnd FILL
XFILL_8__508_ vdd gnd FILL
XFILL_8__439_ vdd gnd FILL
XFILL_0__406_ vdd gnd FILL
XFILL_0__337_ vdd gnd FILL
XFILL_3__617_ vdd gnd FILL
XFILL_3__548_ vdd gnd FILL
XFILL_3__479_ vdd gnd FILL
XFILL_4__315_ vdd gnd FILL
XFILL_7__388_ vdd gnd FILL
XFILL_7__526_ vdd gnd FILL
XFILL_7__457_ vdd gnd FILL
XFILL_2__566_ vdd gnd FILL
XFILL_2__497_ vdd gnd FILL
X_572_ _572_/A _609_/B _572_/C _636_/D vdd gnd AOI21X1
X_641_ _641_/D _655_/CLK _641_/Q vdd gnd DFFPOSX1
XFILL_3__402_ vdd gnd FILL
XFILL_3__333_ vdd gnd FILL
XFILL_6__544_ vdd gnd FILL
XFILL_1_CLKBUF1_insert5 vdd gnd FILL
XFILL_6__613_ vdd gnd FILL
XFILL_6__475_ vdd gnd FILL
XFILL_2_BUFX2_insert19 vdd gnd FILL
XFILL_1__584_ vdd gnd FILL
XFILL_2__420_ vdd gnd FILL
XFILL_2__351_ vdd gnd FILL
XFILL_5__562_ vdd gnd FILL
XFILL_5__493_ vdd gnd FILL
XFILL_7_CLKBUF1_insert0 vdd gnd FILL
XFILL_7__509_ vdd gnd FILL
XFILL_2__549_ vdd gnd FILL
XFILL_2__618_ vdd gnd FILL
X_555_ _555_/A _555_/B _555_/C _573_/A vdd gnd OAI21X1
X_624_ _624_/A _625_/A vdd gnd INVX1
XFILL_4_BUFX2_insert9 vdd gnd FILL
X_486_ _515_/A _562_/B _486_/C _660_/D vdd gnd AOI21X1
XFILL_3__316_ vdd gnd FILL
XFILL_6__527_ vdd gnd FILL
XFILL_6__458_ vdd gnd FILL
XFILL_4__580_ vdd gnd FILL
XFILL_6__389_ vdd gnd FILL
XFILL_1__567_ vdd gnd FILL
XFILL_1__498_ vdd gnd FILL
XFILL_2__403_ vdd gnd FILL
XFILL_2__334_ vdd gnd FILL
XFILL_5__545_ vdd gnd FILL
XFILL_5__614_ vdd gnd FILL
XFILL_5__476_ vdd gnd FILL
XFILL76050x36150 vdd gnd FILL
X_340_ _340_/A _417_/A _340_/C _345_/A vdd gnd OAI21X1
XFILL_0__585_ vdd gnd FILL
X_538_ _553_/C _538_/B _631_/D vdd gnd NAND2X1
XFILL_5_BUFX2_insert12 vdd gnd FILL
XFILL_1__421_ vdd gnd FILL
X_607_ _607_/A _607_/B _609_/A vdd gnd NAND2X1
XFILL_4__563_ vdd gnd FILL
X_469_ _653_/Q _616_/B _471_/A vdd gnd NOR2X1
XFILL_1__352_ vdd gnd FILL
XFILL_4__494_ vdd gnd FILL
XFILL_5__330_ vdd gnd FILL
XFILL_8__541_ vdd gnd FILL
XFILL_1__619_ vdd gnd FILL
XFILL_8__610_ vdd gnd FILL
XFILL_8__472_ vdd gnd FILL
XFILL_0__370_ vdd gnd FILL
XFILL_2__317_ vdd gnd FILL
XFILL_5__528_ vdd gnd FILL
XFILL_5__459_ vdd gnd FILL
XFILL_3__581_ vdd gnd FILL
X_323_ _641_/Q _616_/B _616_/C _324_/C vdd gnd OAI21X1
XFILL_0__568_ vdd gnd FILL
XFILL_0__499_ vdd gnd FILL
XBUFX2_insert6 _632_/Q _609_/B vdd gnd BUFX2
XFILL_7__490_ vdd gnd FILL
XFILL_1__404_ vdd gnd FILL
XFILL_1__335_ vdd gnd FILL
XFILL_4__546_ vdd gnd FILL
XFILL_4__615_ vdd gnd FILL
XFILL_4__477_ vdd gnd FILL
XFILL_1_BUFX2_insert10 vdd gnd FILL
XFILL_5__313_ vdd gnd FILL
XFILL_8__524_ vdd gnd FILL
XFILL_8__386_ vdd gnd FILL
XFILL_8__455_ vdd gnd FILL
XFILL_0__422_ vdd gnd FILL
XFILL_0__353_ vdd gnd FILL
XFILL_3__564_ vdd gnd FILL
XFILL_3__495_ vdd gnd FILL
XFILL_4__400_ vdd gnd FILL
XFILL_7__542_ vdd gnd FILL
XFILL_4__331_ vdd gnd FILL
XFILL_7__611_ vdd gnd FILL
XFILL_7__473_ vdd gnd FILL
XFILL74850x57750 vdd gnd FILL
XFILL_1__318_ vdd gnd FILL
XFILL_4__529_ vdd gnd FILL
XFILL_2__582_ vdd gnd FILL
XFILL_6__560_ vdd gnd FILL
XFILL_6__491_ vdd gnd FILL
XFILL_8__438_ vdd gnd FILL
XFILL_8__369_ vdd gnd FILL
XFILL_0__405_ vdd gnd FILL
XFILL_3__547_ vdd gnd FILL
XFILL_0__336_ vdd gnd FILL
XFILL_3__616_ vdd gnd FILL
XFILL74850x3750 vdd gnd FILL
XFILL74550x7350 vdd gnd FILL
XFILL_3__478_ vdd gnd FILL
XFILL_4__314_ vdd gnd FILL
XFILL_7__525_ vdd gnd FILL
XFILL_7__387_ vdd gnd FILL
XFILL_7__456_ vdd gnd FILL
XFILL_2__496_ vdd gnd FILL
XFILL_2__565_ vdd gnd FILL
XFILL_3__401_ vdd gnd FILL
X_571_ _571_/A _571_/B _572_/A vdd gnd NAND2X1
X_640_ _640_/D _655_/CLK _640_/Q vdd gnd DFFPOSX1
XFILL_3__332_ vdd gnd FILL
XFILL_6__612_ vdd gnd FILL
XFILL_6__543_ vdd gnd FILL
XFILL_6__474_ vdd gnd FILL
XFILL_0__319_ vdd gnd FILL
XFILL_1__583_ vdd gnd FILL
XFILL_2__350_ vdd gnd FILL
XFILL_5__561_ vdd gnd FILL
XFILL_5__492_ vdd gnd FILL
XFILL_1_BUFX2_insert6 vdd gnd FILL
XFILL_7__508_ vdd gnd FILL
XFILL_7_CLKBUF1_insert1 vdd gnd FILL
XFILL_7__439_ vdd gnd FILL
XFILL_2__617_ vdd gnd FILL
XFILL_2__548_ vdd gnd FILL
XFILL_2__479_ vdd gnd FILL
X_554_ _554_/A _668_/A _554_/C _634_/D vdd gnd AOI21X1
X_485_ _648_/Q _562_/B _553_/C _486_/C vdd gnd OAI21X1
X_623_ _623_/A _623_/B _623_/Y vdd gnd NOR2X1
XFILL_3__315_ vdd gnd FILL
XFILL_6__388_ vdd gnd FILL
XFILL_6__526_ vdd gnd FILL
XFILL_6__457_ vdd gnd FILL
XFILL_1__566_ vdd gnd FILL
XFILL_1__497_ vdd gnd FILL
XFILL_2__402_ vdd gnd FILL
XFILL_2__333_ vdd gnd FILL
XFILL_5__613_ vdd gnd FILL
XFILL_5__544_ vdd gnd FILL
XFILL_5__475_ vdd gnd FILL
XFILL_0__584_ vdd gnd FILL
X_468_ _468_/A _468_/B _468_/C _468_/D _652_/D vdd gnd AOI22X1
XFILL75450x39750 vdd gnd FILL
X_537_ _537_/A _563_/C _630_/D vdd gnd NOR2X1
XFILL_1__420_ vdd gnd FILL
X_606_ _606_/A _610_/A _610_/B _607_/A vdd gnd OAI21X1
XFILL_5_BUFX2_insert13 vdd gnd FILL
XFILL_1__351_ vdd gnd FILL
X_399_ _402_/A _414_/C _413_/C vdd gnd NOR2X1
XFILL_4__562_ vdd gnd FILL
XFILL_4__493_ vdd gnd FILL
XFILL_6__509_ vdd gnd FILL
XFILL_1__618_ vdd gnd FILL
XFILL_1__549_ vdd gnd FILL
XFILL_8__471_ vdd gnd FILL
XFILL_3__580_ vdd gnd FILL
XFILL_2__316_ vdd gnd FILL
XFILL_5__389_ vdd gnd FILL
XFILL_5__527_ vdd gnd FILL
XFILL_5__458_ vdd gnd FILL
X_322_ _322_/A _322_/B _324_/A vdd gnd NAND2X1
XFILL_0__567_ vdd gnd FILL
XFILL75450x14550 vdd gnd FILL
XFILL_0__498_ vdd gnd FILL
XBUFX2_insert7 _632_/Q _440_/B vdd gnd BUFX2
XFILL_1__403_ vdd gnd FILL
XFILL_1__334_ vdd gnd FILL
XFILL_4__545_ vdd gnd FILL
XFILL_4__614_ vdd gnd FILL
XFILL_4__476_ vdd gnd FILL
XFILL_1_BUFX2_insert11 vdd gnd FILL
XFILL_8__454_ vdd gnd FILL
XFILL_8__523_ vdd gnd FILL
XFILL_0__352_ vdd gnd FILL
XFILL_0__421_ vdd gnd FILL
XFILL_3__563_ vdd gnd FILL
XFILL_3__494_ vdd gnd FILL
XFILL_4__330_ vdd gnd FILL
XFILL_7__541_ vdd gnd FILL
XFILL_0__619_ vdd gnd FILL
XFILL_7__610_ vdd gnd FILL
XFILL_7__472_ vdd gnd FILL
XFILL_1__317_ vdd gnd FILL
XFILL_4__528_ vdd gnd FILL
XFILL_4__459_ vdd gnd FILL
XFILL_2__581_ vdd gnd FILL
XFILL_8__506_ vdd gnd FILL
XFILL_6__490_ vdd gnd FILL
XFILL_8__368_ vdd gnd FILL
XFILL_0__404_ vdd gnd FILL
XFILL_0__335_ vdd gnd FILL
XFILL_3__546_ vdd gnd FILL
XFILL_3__615_ vdd gnd FILL
XFILL_2_CLKBUF1_insert0 vdd gnd FILL
XFILL75150x36150 vdd gnd FILL
XFILL_3__477_ vdd gnd FILL
XFILL_4__313_ vdd gnd FILL
XFILL_7__524_ vdd gnd FILL
XFILL_7__455_ vdd gnd FILL
XFILL_7__386_ vdd gnd FILL
XFILL_2__564_ vdd gnd FILL
XFILL75150x7350 vdd gnd FILL
XFILL_2__495_ vdd gnd FILL
XFILL_3__400_ vdd gnd FILL
X_570_ _575_/C _574_/A _570_/C _571_/B vdd gnd OAI21X1
XFILL75450x3750 vdd gnd FILL
XFILL_3__331_ vdd gnd FILL
XFILL76050x64950 vdd gnd FILL
XFILL_6__542_ vdd gnd FILL
XFILL_6__611_ vdd gnd FILL
XFILL_6__473_ vdd gnd FILL
XFILL_0__318_ vdd gnd FILL
XFILL_3__529_ vdd gnd FILL
XFILL_1__582_ vdd gnd FILL
XFILL_5__560_ vdd gnd FILL
XFILL_5__491_ vdd gnd FILL
XFILL_1_BUFX2_insert7 vdd gnd FILL
XFILL_7__438_ vdd gnd FILL
XFILL_7__507_ vdd gnd FILL
XFILL_7__369_ vdd gnd FILL
XFILL_7_CLKBUF1_insert2 vdd gnd FILL
XFILL_2__547_ vdd gnd FILL
XFILL_2__616_ vdd gnd FILL
X_622_ _622_/A _622_/B _622_/C _623_/B vdd gnd NAND3X1
XFILL_2__478_ vdd gnd FILL
X_553_ _634_/Q _668_/A _553_/C _554_/C vdd gnd OAI21X1
X_484_ _503_/A _562_/B _484_/C _659_/D vdd gnd AOI21X1
XFILL_3__314_ vdd gnd FILL
XFILL_6__525_ vdd gnd FILL
XFILL_6__387_ vdd gnd FILL
XFILL_6__456_ vdd gnd FILL
XFILL_1__496_ vdd gnd FILL
XFILL_1__565_ vdd gnd FILL
XFILL_2__401_ vdd gnd FILL
XFILL_2__332_ vdd gnd FILL
XFILL_5__612_ vdd gnd FILL
XFILL_5__543_ vdd gnd FILL
XFILL_5__474_ vdd gnd FILL
XFILL73950x57750 vdd gnd FILL
XFILL_0__583_ vdd gnd FILL
X_605_ _622_/B _610_/A vdd gnd INVX1
X_398_ _648_/Q FCW[15] _402_/A vdd gnd NOR2X1
X_467_ _467_/A _467_/B _533_/A _468_/C vdd gnd AOI21X1
X_536_ _536_/A _563_/C _629_/D vdd gnd NOR2X1
XFILL_1__350_ vdd gnd FILL
XFILL_5_BUFX2_insert14 vdd gnd FILL
XFILL_4__561_ vdd gnd FILL
XFILL_4__492_ vdd gnd FILL
XFILL_6__508_ vdd gnd FILL
XFILL_6__439_ vdd gnd FILL
XFILL_1__617_ vdd gnd FILL
XFILL_1__548_ vdd gnd FILL
XFILL_1__479_ vdd gnd FILL
XFILL_5__526_ vdd gnd FILL
XFILL_2__315_ vdd gnd FILL
XFILL_5__388_ vdd gnd FILL
XFILL_5__457_ vdd gnd FILL
X_321_ _360_/A _417_/A _322_/A vdd gnd NAND2X1
XFILL_8__599_ vdd gnd FILL
XFILL_0__566_ vdd gnd FILL
XFILL_0__497_ vdd gnd FILL
XFILL_1__402_ vdd gnd FILL
XBUFX2_insert8 _632_/Q _491_/B vdd gnd BUFX2
XFILL_1__333_ vdd gnd FILL
XFILL_4__613_ vdd gnd FILL
X_519_ _627_/Q _519_/B _520_/C vdd gnd NAND2X1
XFILL_4__544_ vdd gnd FILL
XFILL_4__475_ vdd gnd FILL
XFILL_1_BUFX2_insert12 vdd gnd FILL
XFILL_8__384_ vdd gnd FILL
XFILL_8__453_ vdd gnd FILL
XFILL_0__420_ vdd gnd FILL
XFILL_0__351_ vdd gnd FILL
XFILL_3__562_ vdd gnd FILL
XFILL_3__493_ vdd gnd FILL
XFILL_5__509_ vdd gnd FILL
XFILL_0__618_ vdd gnd FILL
XFILL_0__549_ vdd gnd FILL
XFILL_7__540_ vdd gnd FILL
XFILL_7__471_ vdd gnd FILL
XFILL_2__580_ vdd gnd FILL
XFILL_1__316_ vdd gnd FILL
XFILL_4__389_ vdd gnd FILL
XFILL_4__527_ vdd gnd FILL
XFILL_4__458_ vdd gnd FILL
XFILL_8__505_ vdd gnd FILL
XFILL_8__436_ vdd gnd FILL
XFILL_0__403_ vdd gnd FILL
XFILL_0__334_ vdd gnd FILL
XFILL_3__545_ vdd gnd FILL
XFILL_3__614_ vdd gnd FILL
XFILL_3__476_ vdd gnd FILL
XFILL_2_CLKBUF1_insert1 vdd gnd FILL
XCLKBUF1_insert0 clk _656_/CLK vdd gnd CLKBUF1
XFILL_7__454_ vdd gnd FILL
XFILL_7__523_ vdd gnd FILL
XFILL_7__385_ vdd gnd FILL
XFILL74550x39750 vdd gnd FILL
XFILL_2__563_ vdd gnd FILL
XFILL_2__494_ vdd gnd FILL
XFILL_3__330_ vdd gnd FILL
XFILL_6__541_ vdd gnd FILL
XFILL_6__610_ vdd gnd FILL
XFILL_6__472_ vdd gnd FILL
XFILL_8__419_ vdd gnd FILL
XFILL_0__317_ vdd gnd FILL
XFILL_1__581_ vdd gnd FILL
XFILL_3__528_ vdd gnd FILL
XFILL_3__459_ vdd gnd FILL
XFILL76050x3750 vdd gnd FILL
XFILL_1_BUFX2_insert8 vdd gnd FILL
XFILL74550x14550 vdd gnd FILL
XFILL_7__368_ vdd gnd FILL
XFILL_7__506_ vdd gnd FILL
XFILL_5__490_ vdd gnd FILL
XFILL_7__437_ vdd gnd FILL
XFILL_7_CLKBUF1_insert3 vdd gnd FILL
XFILL_2__546_ vdd gnd FILL
XFILL_2__615_ vdd gnd FILL
XFILL_2__477_ vdd gnd FILL
X_621_ _621_/A _621_/B _622_/C vdd gnd NOR2X1
X_552_ _552_/A _552_/B _554_/A vdd gnd NAND2X1
X_483_ _647_/Q _562_/B _553_/C _484_/C vdd gnd OAI21X1
XFILL_3__313_ vdd gnd FILL
XFILL_6__524_ vdd gnd FILL
XFILL_6__455_ vdd gnd FILL
XFILL_6__386_ vdd gnd FILL
XFILL_1__564_ vdd gnd FILL
XFILL_1__495_ vdd gnd FILL
XFILL_2__400_ vdd gnd FILL
XFILL_2__331_ vdd gnd FILL
XFILL_5__542_ vdd gnd FILL
XFILL_5__611_ vdd gnd FILL
XFILL_5__473_ vdd gnd FILL
XFILL_2__529_ vdd gnd FILL
XFILL_0__582_ vdd gnd FILL
X_535_ _627_/Q _535_/B _628_/D vdd gnd AND2X2
X_604_ _622_/A _606_/A vdd gnd INVX1
X_397_ _403_/A _414_/C vdd gnd INVX1
X_466_ _466_/A _467_/B vdd gnd INVX1
XFILL_5_BUFX2_insert15 vdd gnd FILL
XFILL_4__560_ vdd gnd FILL
XFILL_4__491_ vdd gnd FILL
XFILL_6__438_ vdd gnd FILL
XFILL_6__507_ vdd gnd FILL
XFILL_6__369_ vdd gnd FILL
XFILL_1__547_ vdd gnd FILL
XFILL_1__616_ vdd gnd FILL
XFILL74250x36150 vdd gnd FILL
XFILL_1__478_ vdd gnd FILL
XFILL_2__314_ vdd gnd FILL
XFILL_5__525_ vdd gnd FILL
XFILL_8__667_ vdd gnd FILL
XFILL_5__387_ vdd gnd FILL
XFILL_5__456_ vdd gnd FILL
X_320_ _417_/A _360_/A _322_/B vdd gnd OR2X2
XFILL_8__598_ vdd gnd FILL
XFILL_0__496_ vdd gnd FILL
XFILL_0__565_ vdd gnd FILL
XFILL_1__401_ vdd gnd FILL
XBUFX2_insert9 _632_/Q _668_/A vdd gnd BUFX2
X_518_ _656_/Q _519_/B vdd gnd INVX1
XFILL75750x68550 vdd gnd FILL
XFILL75150x64950 vdd gnd FILL
XFILL_4__543_ vdd gnd FILL
X_449_ _465_/B _465_/A _454_/A vdd gnd NAND2X1
XFILL_1__332_ vdd gnd FILL
XFILL_4__612_ vdd gnd FILL
XFILL_4__474_ vdd gnd FILL
XFILL_1_BUFX2_insert13 vdd gnd FILL
XFILL_8__521_ vdd gnd FILL
XFILL_8__383_ vdd gnd FILL
XFILL_8__452_ vdd gnd FILL
XFILL_0__350_ vdd gnd FILL
XFILL_3__561_ vdd gnd FILL
XFILL_3__492_ vdd gnd FILL
XFILL_5__508_ vdd gnd FILL