* NGSPICE file created from output_terminal.ext - technology: scmos

* Black-box entry subcircuit for FILL abstract view
.subckt FILL vdd gnd
.ends

* Black-box entry subcircuit for NAND3X1 abstract view
.subckt NAND3X1 A B C Y vdd gnd
.ends

* Black-box entry subcircuit for NAND2X1 abstract view
.subckt NAND2X1 A B Y vdd gnd
.ends

* Black-box entry subcircuit for INVX1 abstract view
.subckt INVX1 A Y vdd gnd
.ends

* Black-box entry subcircuit for NOR2X1 abstract view
.subckt NOR2X1 A B Y vdd gnd
.ends

* Black-box entry subcircuit for OAI21X1 abstract view
.subckt OAI21X1 A B C Y vdd gnd
.ends

* Black-box entry subcircuit for DFFPOSX1 abstract view
.subckt DFFPOSX1 D CLK Q vdd gnd
.ends

* Black-box entry subcircuit for AND2X2 abstract view
.subckt AND2X2 A B Y vdd gnd
.ends

* Black-box entry subcircuit for OR2X2 abstract view
.subckt OR2X2 A B Y vdd gnd
.ends

* Black-box entry subcircuit for BUFX2 abstract view
.subckt BUFX2 A Y vdd gnd
.ends

* Black-box entry subcircuit for AOI22X1 abstract view
.subckt AOI22X1 A B C D Y vdd gnd
.ends

* Black-box entry subcircuit for INVX2 abstract view
.subckt INVX2 A Y vdd gnd
.ends

* Black-box entry subcircuit for INVX8 abstract view
.subckt INVX8 A Y vdd gnd
.ends

* Black-box entry subcircuit for CLKBUF1 abstract view
.subckt CLKBUF1 A Y vdd gnd
.ends

* Black-box entry subcircuit for AOI21X1 abstract view
.subckt AOI21X1 A B C Y vdd gnd
.ends

* Black-box entry subcircuit for INVX4 abstract view
.subckt INVX4 A Y vdd gnd
.ends

.subckt output_terminal gnd vdd Dout[11] Dout[10] Dout[9] Dout[8] Dout[7] Dout[6]
+ Dout[5] Dout[4] Dout[3] Dout[2] Dout[1] Dout[0] ISin Rdy Vld Xin[1] Xin[0] Yin[1]
+ Yin[0] clk selSign selXY
XFILL_5__370_ vdd gnd FILL
XFILL_7__317_ vdd gnd FILL
XFILL_2__288_ vdd gnd FILL
XFILL_2__426_ vdd gnd FILL
XFILL_2__357_ vdd gnd FILL
X_501_ _625_/A _501_/B _501_/C _502_/C vdd gnd NAND3X1
XFILL_5__499_ vdd gnd FILL
X_432_ _432_/A _432_/B _433_/B vdd gnd NAND2X1
X_294_ _577_/Q _479_/A vdd gnd INVX1
X_363_ _590_/Q _591_/Q _367_/B vdd gnd NOR2X1
XFILL_9__615_ vdd gnd FILL
XFILL_6__404_ vdd gnd FILL
XFILL_0_CLKBUF1_insert6 vdd gnd FILL
XFILL_6__335_ vdd gnd FILL
XFILL_9__477_ vdd gnd FILL
XFILL_9__546_ vdd gnd FILL
XFILL_1__513_ vdd gnd FILL
XFILL_1__444_ vdd gnd FILL
XFILL_1__375_ vdd gnd FILL
XFILL_5__422_ vdd gnd FILL
XFILL_5__353_ vdd gnd FILL
XFILL_8__495_ vdd gnd FILL
XFILL_5__284_ vdd gnd FILL
XFILL_6_CLKBUF1_insert1 vdd gnd FILL
XFILL_0__462_ vdd gnd FILL
XFILL_7_BUFX2_insert7 vdd gnd FILL
XFILL_0__531_ vdd gnd FILL
XFILL_2__409_ vdd gnd FILL
XFILL_0__393_ vdd gnd FILL
XFILL_9__331_ vdd gnd FILL
X_415_ _415_/A _582_/Q _417_/B _419_/B vdd gnd NAND3X1
X_346_ _346_/A _346_/B _348_/B vdd gnd NAND2X1
X_277_ _286_/A _559_/Q _278_/C vdd gnd NAND2X1
XFILL_4__440_ vdd gnd FILL
XFILL_6__318_ vdd gnd FILL
XFILL_4__371_ vdd gnd FILL
XFILL_9__529_ vdd gnd FILL
XFILL_1__427_ vdd gnd FILL
XFILL_1__358_ vdd gnd FILL
XFILL_1__289_ vdd gnd FILL
XFILL_8__280_ vdd gnd FILL
XFILL_5__336_ vdd gnd FILL
XFILL_5__405_ vdd gnd FILL
XFILL_8__616_ vdd gnd FILL
XFILL_8__478_ vdd gnd FILL
XFILL_8__547_ vdd gnd FILL
XFILL_0__514_ vdd gnd FILL
XFILL_0__445_ vdd gnd FILL
XFILL_0__376_ vdd gnd FILL
X_329_ _554_/A _542_/B _329_/C _603_/D vdd gnd OAI21X1
XFILL_4__423_ vdd gnd FILL
XFILL_4__354_ vdd gnd FILL
XFILL_4__285_ vdd gnd FILL
XFILL_7__496_ vdd gnd FILL
XFILL74250x39750 vdd gnd FILL
XFILL_8__401_ vdd gnd FILL
XFILL_8__332_ vdd gnd FILL
XFILL_3__510_ vdd gnd FILL
XFILL_3__441_ vdd gnd FILL
XFILL_5__319_ vdd gnd FILL
XFILL_3__372_ vdd gnd FILL
XFILL_0__428_ vdd gnd FILL
XFILL_0__359_ vdd gnd FILL
XFILL_7__281_ vdd gnd FILL
XFILL_7__350_ vdd gnd FILL
XFILL_4__337_ vdd gnd FILL
XFILL_4__406_ vdd gnd FILL
XFILL_2__390_ vdd gnd FILL
XFILL_7__617_ vdd gnd FILL
XFILL_7__548_ vdd gnd FILL
XFILL_7__479_ vdd gnd FILL
XFILL_8__315_ vdd gnd FILL
X_594_ _594_/D _605_/CLK _594_/Q vdd gnd DFFPOSX1
XFILL_6_BUFX2_insert16 vdd gnd FILL
XFILL_3__424_ vdd gnd FILL
XFILL_3__286_ vdd gnd FILL
XFILL_3__355_ vdd gnd FILL
XFILL_6__497_ vdd gnd FILL
XFILL75750x46950 vdd gnd FILL
XFILL_7__402_ vdd gnd FILL
XFILL_7__333_ vdd gnd FILL
XFILL_2__511_ vdd gnd FILL
XFILL_2__442_ vdd gnd FILL
XFILL_2__373_ vdd gnd FILL
XFILL_6__420_ vdd gnd FILL
XFILL_6__282_ vdd gnd FILL
XFILL_6__351_ vdd gnd FILL
XFILL_9__493_ vdd gnd FILL
X_577_ _577_/D _581_/CLK _577_/Q vdd gnd DFFPOSX1
XFILL_1__460_ vdd gnd FILL
XFILL_3__407_ vdd gnd FILL
XFILL_1__391_ vdd gnd FILL
XFILL_3__338_ vdd gnd FILL
XFILL_6__618_ vdd gnd FILL
XFILL_1_CLKBUF1_insert0 vdd gnd FILL
XFILL_6__549_ vdd gnd FILL
XFILL_2_BUFX2_insert25 vdd gnd FILL
XFILL_2_BUFX2_insert14 vdd gnd FILL
XFILL_7__316_ vdd gnd FILL
XFILL_2__425_ vdd gnd FILL
X_500_ _548_/A _510_/C _501_/C vdd gnd NAND2X1
XFILL_2__287_ vdd gnd FILL
XFILL_2__356_ vdd gnd FILL
XFILL_5__498_ vdd gnd FILL
X_362_ _410_/B _362_/B _362_/C _561_/D vdd gnd OAI21X1
X_431_ _431_/A _431_/B _431_/C _432_/B vdd gnd NAND3X1
X_293_ _308_/A _472_/A _293_/C _621_/A vdd gnd OAI21X1
XFILL_6__403_ vdd gnd FILL
XFILL_9_BUFX2_insert20 vdd gnd FILL
XFILL_6__334_ vdd gnd FILL
XFILL_1__512_ vdd gnd FILL
XFILL_9__545_ vdd gnd FILL
XFILL_1__443_ vdd gnd FILL
XFILL_1__374_ vdd gnd FILL
XFILL_5__283_ vdd gnd FILL
XFILL_5__421_ vdd gnd FILL
XFILL_5__352_ vdd gnd FILL
XFILL_8__494_ vdd gnd FILL
XFILL_6_CLKBUF1_insert2 vdd gnd FILL
XFILL_7_BUFX2_insert8 vdd gnd FILL
XFILL_0__461_ vdd gnd FILL
XFILL_2__408_ vdd gnd FILL
XFILL_0__530_ vdd gnd FILL
XFILL_0__392_ vdd gnd FILL
XFILL_5__619_ vdd gnd FILL
XFILL_2__339_ vdd gnd FILL
XFILL_9__330_ vdd gnd FILL
X_414_ _414_/A _414_/B _414_/C _417_/B vdd gnd NAND3X1
X_345_ _490_/A _544_/B _546_/B _346_/B vdd gnd OAI21X1
X_276_ _571_/Q _440_/A vdd gnd INVX1
XFILL_4__370_ vdd gnd FILL
XFILL_6__317_ vdd gnd FILL
XFILL_9__459_ vdd gnd FILL
XFILL_1__288_ vdd gnd FILL
XFILL_1__426_ vdd gnd FILL
XFILL_1__357_ vdd gnd FILL
XFILL_4__499_ vdd gnd FILL
XFILL_5__404_ vdd gnd FILL
XFILL_8__615_ vdd gnd FILL
XFILL_5__335_ vdd gnd FILL
XFILL_8__477_ vdd gnd FILL
XFILL_8__546_ vdd gnd FILL
XFILL_0__513_ vdd gnd FILL
XFILL_0__444_ vdd gnd FILL
XFILL_0__375_ vdd gnd FILL
XFILL_9__313_ vdd gnd FILL
X_328_ _607_/D _541_/B _603_/Q _329_/C vdd gnd OAI21X1
XFILL_4__422_ vdd gnd FILL
XFILL_4__353_ vdd gnd FILL
XFILL_7__495_ vdd gnd FILL
XFILL_4__284_ vdd gnd FILL
XFILL_1__409_ vdd gnd FILL
XFILL_8__400_ vdd gnd FILL
XFILL_8__331_ vdd gnd FILL
XFILL_3__440_ vdd gnd FILL
XFILL_3__371_ vdd gnd FILL
XFILL_5__318_ vdd gnd FILL
XFILL_8__529_ vdd gnd FILL
XFILL_0__427_ vdd gnd FILL
XFILL_0__358_ vdd gnd FILL
XFILL_0__289_ vdd gnd FILL
XFILL_7__280_ vdd gnd FILL
XFILL_4__336_ vdd gnd FILL
XFILL_4__405_ vdd gnd FILL
XFILL_7__616_ vdd gnd FILL
XFILL_7__478_ vdd gnd FILL
XFILL_7__547_ vdd gnd FILL
XFILL_8__314_ vdd gnd FILL
XFILL_3__423_ vdd gnd FILL
X_593_ _593_/D _595_/CLK _593_/Q vdd gnd DFFPOSX1
XFILL_6_BUFX2_insert17 vdd gnd FILL
XFILL_3__354_ vdd gnd FILL
XFILL_3__285_ vdd gnd FILL
XFILL_6__496_ vdd gnd FILL
XFILL_7__401_ vdd gnd FILL
XFILL_7__332_ vdd gnd FILL
XFILL_2__510_ vdd gnd FILL
XFILL_2__441_ vdd gnd FILL
XFILL_4__319_ vdd gnd FILL
XFILL_2__372_ vdd gnd FILL
XFILL_6__281_ vdd gnd FILL
XFILL_6__350_ vdd gnd FILL
XFILL_9__492_ vdd gnd FILL
X_576_ _576_/D _601_/CLK _576_/Q vdd gnd DFFPOSX1
XFILL_3__337_ vdd gnd FILL
XFILL_3__406_ vdd gnd FILL
XFILL_1_CLKBUF1_insert1 vdd gnd FILL
XFILL_1__390_ vdd gnd FILL
XFILL_6__479_ vdd gnd FILL
XFILL_6__617_ vdd gnd FILL
XFILL_6__548_ vdd gnd FILL
XFILL_2_BUFX2_insert15 vdd gnd FILL
XFILL_7__315_ vdd gnd FILL
XFILL_2__424_ vdd gnd FILL
XFILL_2__286_ vdd gnd FILL
XFILL_2__355_ vdd gnd FILL
XFILL_5__497_ vdd gnd FILL
X_292_ _305_/A _564_/Q _293_/C vdd gnd NAND2X1
X_361_ _561_/Q _503_/B _362_/C vdd gnd NAND2X1
X_430_ _584_/Q _585_/Q _430_/C _431_/A vdd gnd OAI21X1
XFILL_6__402_ vdd gnd FILL
XFILL_6__333_ vdd gnd FILL
XFILL_9__613_ vdd gnd FILL
XFILL_9_BUFX2_insert21 vdd gnd FILL
XFILL_9__544_ vdd gnd FILL
XFILL_1__511_ vdd gnd FILL
XFILL_9__475_ vdd gnd FILL
XFILL_1__442_ vdd gnd FILL
XFILL_1__373_ vdd gnd FILL
X_559_ _559_/D _573_/CLK _559_/Q vdd gnd DFFPOSX1
XFILL_5__420_ vdd gnd FILL
XFILL_5__282_ vdd gnd FILL
XFILL_5__351_ vdd gnd FILL
XFILL_8__493_ vdd gnd FILL
XFILL_7_BUFX2_insert9 vdd gnd FILL
XFILL_6_CLKBUF1_insert3 vdd gnd FILL
XFILL_2__338_ vdd gnd FILL
XFILL_0__460_ vdd gnd FILL
XFILL_2__407_ vdd gnd FILL
XFILL_0__391_ vdd gnd FILL
XFILL_5__618_ vdd gnd FILL
XFILL_5__549_ vdd gnd FILL
X_413_ _584_/Q _585_/Q _414_/A vdd gnd NOR2X1
X_275_ _286_/A _436_/B _275_/C _613_/A vdd gnd OAI21X1
X_344_ _593_/Q _546_/B vdd gnd INVX1
XFILL_6__316_ vdd gnd FILL
XFILL_9__527_ vdd gnd FILL
XFILL_9__458_ vdd gnd FILL
XFILL_1__425_ vdd gnd FILL
XFILL_1__287_ vdd gnd FILL
XFILL_1__356_ vdd gnd FILL
XFILL_4__498_ vdd gnd FILL
XFILL_5__403_ vdd gnd FILL
XFILL_8__614_ vdd gnd FILL
XFILL_8__545_ vdd gnd FILL
XFILL_5__334_ vdd gnd FILL
XFILL_0__512_ vdd gnd FILL
XFILL_8__476_ vdd gnd FILL
XFILL_0__443_ vdd gnd FILL
XFILL_9__312_ vdd gnd FILL
XFILL_0__374_ vdd gnd FILL
X_327_ _556_/A _542_/B _327_/C _602_/D vdd gnd OAI21X1
XFILL_4__283_ vdd gnd FILL
XFILL_4__421_ vdd gnd FILL
XFILL_4__352_ vdd gnd FILL
XFILL_7__494_ vdd gnd FILL
XFILL_1__408_ vdd gnd FILL
XFILL_4__619_ vdd gnd FILL
XFILL_1__339_ vdd gnd FILL
XFILL_8__330_ vdd gnd FILL
XFILL_5__317_ vdd gnd FILL
XFILL_3__370_ vdd gnd FILL
XFILL_8__528_ vdd gnd FILL
XFILL_8__459_ vdd gnd FILL
XFILL_0__288_ vdd gnd FILL
XFILL_0__426_ vdd gnd FILL
XFILL_0__357_ vdd gnd FILL
XFILL_3__499_ vdd gnd FILL
XFILL_4__404_ vdd gnd FILL
XFILL_7__615_ vdd gnd FILL
XFILL_4__335_ vdd gnd FILL
XFILL_7__477_ vdd gnd FILL
XFILL_7__546_ vdd gnd FILL
XFILL_8__313_ vdd gnd FILL
XFILL_6_BUFX2_insert18 vdd gnd FILL
X_592_ _592_/D _595_/CLK _592_/Q vdd gnd DFFPOSX1
XFILL_3__284_ vdd gnd FILL
XFILL_3__422_ vdd gnd FILL
XFILL_3__353_ vdd gnd FILL
XFILL_6__495_ vdd gnd FILL
XFILL_0__409_ vdd gnd FILL
XFILL_7__400_ vdd gnd FILL
XFILL_7__331_ vdd gnd FILL
XFILL_2__440_ vdd gnd FILL
XFILL_2__371_ vdd gnd FILL
XFILL_4__318_ vdd gnd FILL
XFILL_7__529_ vdd gnd FILL
XFILL_6__280_ vdd gnd FILL
X_575_ _575_/D _581_/CLK _575_/Q vdd gnd DFFPOSX1
XFILL_6__616_ vdd gnd FILL
XFILL_3__336_ vdd gnd FILL
XFILL_3__405_ vdd gnd FILL
XFILL_1_CLKBUF1_insert2 vdd gnd FILL
XFILL75450x28950 vdd gnd FILL
XFILL_6__478_ vdd gnd FILL
XFILL_6__547_ vdd gnd FILL
XFILL_2_BUFX2_insert16 vdd gnd FILL
XFILL_7__314_ vdd gnd FILL
XFILL_2__423_ vdd gnd FILL
XFILL_2__354_ vdd gnd FILL
XFILL_5__496_ vdd gnd FILL
XFILL_2__285_ vdd gnd FILL
X_291_ _576_/Q _472_/A vdd gnd INVX1
X_360_ _360_/A _360_/B _362_/B vdd gnd NAND2X1
XFILL_9_BUFX2_insert11 vdd gnd FILL
XFILL_6__401_ vdd gnd FILL
XFILL_6__332_ vdd gnd FILL
XFILL_9__474_ vdd gnd FILL
XFILL_1__510_ vdd gnd FILL
XFILL_1__441_ vdd gnd FILL
X_558_ _558_/D _573_/CLK _558_/Q vdd gnd DFFPOSX1
X_489_ _597_/Q _492_/B vdd gnd INVX1
XFILL_3__319_ vdd gnd FILL
XFILL_1__372_ vdd gnd FILL
XFILL_5__350_ vdd gnd FILL
XFILL_5__281_ vdd gnd FILL
XFILL_8__492_ vdd gnd FILL
XFILL_6_CLKBUF1_insert4 vdd gnd FILL
XFILL_2__337_ vdd gnd FILL
XFILL_2__406_ vdd gnd FILL
XFILL_0__390_ vdd gnd FILL
XFILL_5__479_ vdd gnd FILL
XFILL_5__617_ vdd gnd FILL
XFILL_5__548_ vdd gnd FILL
X_412_ _412_/A _412_/B _414_/C vdd gnd AND2X2
X_274_ _558_/Q _301_/A _275_/C vdd gnd NAND2X1
X_343_ _415_/A _592_/Q _593_/Q _346_/A vdd gnd NAND3X1
XFILL_6__315_ vdd gnd FILL
XFILL_9__526_ vdd gnd FILL
XFILL_5_BUFX2_insert20 vdd gnd FILL
XFILL_1__424_ vdd gnd FILL
XFILL_1__355_ vdd gnd FILL
XFILL_9__388_ vdd gnd FILL
XFILL_1__286_ vdd gnd FILL
XFILL_4__497_ vdd gnd FILL
XFILL_5__402_ vdd gnd FILL
XFILL_5__333_ vdd gnd FILL
XFILL_8__613_ vdd gnd FILL
XFILL_8__544_ vdd gnd FILL
XFILL_0__511_ vdd gnd FILL
XFILL_8__475_ vdd gnd FILL
XFILL_0__442_ vdd gnd FILL
XFILL_9__311_ vdd gnd FILL
XFILL_0__373_ vdd gnd FILL
X_326_ _607_/D _541_/B _602_/Q _327_/C vdd gnd OAI21X1
XFILL_4__420_ vdd gnd FILL
XFILL75150x25350 vdd gnd FILL
XFILL75750x72150 vdd gnd FILL
XFILL_4__282_ vdd gnd FILL
XFILL_4__351_ vdd gnd FILL
XFILL_7__493_ vdd gnd FILL
XFILL_1__338_ vdd gnd FILL
XFILL_1__407_ vdd gnd FILL
XFILL_4__618_ vdd gnd FILL
XFILL_4__549_ vdd gnd FILL
XFILL_5__316_ vdd gnd FILL
XFILL_8__458_ vdd gnd FILL
XFILL_8__527_ vdd gnd FILL
XFILL_0__425_ vdd gnd FILL
XFILL_8__389_ vdd gnd FILL
XFILL_0__287_ vdd gnd FILL
XFILL_0__356_ vdd gnd FILL
XFILL_3__498_ vdd gnd FILL
X_309_ Yin[1] _554_/A vdd gnd INVX1
XFILL_4__403_ vdd gnd FILL
XFILL_4__334_ vdd gnd FILL
XFILL_7__614_ vdd gnd FILL
XFILL_7__545_ vdd gnd FILL
XFILL_7__476_ vdd gnd FILL
XFILL_8__312_ vdd gnd FILL
XFILL_6_BUFX2_insert19 vdd gnd FILL
XFILL_3__421_ vdd gnd FILL
X_591_ _591_/D _606_/CLK _591_/Q vdd gnd DFFPOSX1
XFILL_3__283_ vdd gnd FILL
XFILL_3__352_ vdd gnd FILL
XFILL_6__494_ vdd gnd FILL
XFILL_0__408_ vdd gnd FILL
XFILL_0__339_ vdd gnd FILL
XFILL_3__619_ vdd gnd FILL
XFILL_7__330_ vdd gnd FILL
XFILL_4__317_ vdd gnd FILL
XFILL_2__370_ vdd gnd FILL
XFILL_7__528_ vdd gnd FILL
XFILL_7__459_ vdd gnd FILL
XFILL_9__490_ vdd gnd FILL
XFILL_2__499_ vdd gnd FILL
XFILL_3__404_ vdd gnd FILL
X_574_ _574_/D _581_/CLK _574_/Q vdd gnd DFFPOSX1
XFILL_6__615_ vdd gnd FILL
XFILL_1_CLKBUF1_insert3 vdd gnd FILL
XFILL_3__335_ vdd gnd FILL
XFILL_6__477_ vdd gnd FILL
XFILL_6__546_ vdd gnd FILL
XFILL_2_BUFX2_insert17 vdd gnd FILL
XFILL_7__313_ vdd gnd FILL
XFILL_2__284_ vdd gnd FILL
XFILL_2__422_ vdd gnd FILL
XFILL_2__353_ vdd gnd FILL
XFILL_5__495_ vdd gnd FILL
X_290_ _308_/A _464_/A _290_/C _620_/A vdd gnd OAI21X1
XFILL_6__400_ vdd gnd FILL
XFILL_9_BUFX2_insert12 vdd gnd FILL
XFILL_9_BUFX2_insert23 vdd gnd FILL
XFILL_6__331_ vdd gnd FILL
XFILL_9__473_ vdd gnd FILL
XFILL_9__542_ vdd gnd FILL
X_488_ _493_/B _488_/B _488_/C _578_/D vdd gnd OAI21X1
X_557_ _557_/D _601_/CLK _557_/Q vdd gnd DFFPOSX1
XFILL_4_BUFX2_insert7 vdd gnd FILL
XFILL_1__440_ vdd gnd FILL
XFILL_1__371_ vdd gnd FILL
XFILL_3__318_ vdd gnd FILL
XFILL_6__529_ vdd gnd FILL
XFILL_5__280_ vdd gnd FILL
XFILL_8__491_ vdd gnd FILL
XFILL_6_CLKBUF1_insert5 vdd gnd FILL
XFILL_2__405_ vdd gnd FILL
XFILL_5__616_ vdd gnd FILL
XFILL_2__336_ vdd gnd FILL
XFILL_5__478_ vdd gnd FILL
XFILL_5__547_ vdd gnd FILL
X_411_ _568_/Q _420_/A vdd gnd INVX1
X_342_ _544_/B _378_/A _342_/C _558_/D vdd gnd OAI21X1
X_273_ _570_/Q _436_/B vdd gnd INVX1
XFILL_6__314_ vdd gnd FILL
XFILL_9__456_ vdd gnd FILL
XFILL_9__387_ vdd gnd FILL
X_609_ _609_/D _612_/CLK _610_/D vdd gnd DFFPOSX1
XFILL_9__525_ vdd gnd FILL
XFILL_5_BUFX2_insert10 vdd gnd FILL
XFILL_1__285_ vdd gnd FILL
XFILL_5_BUFX2_insert21 vdd gnd FILL
XFILL_1__423_ vdd gnd FILL
XFILL_1__354_ vdd gnd FILL
XFILL_4__496_ vdd gnd FILL
XFILL_5__401_ vdd gnd FILL
XFILL_5__332_ vdd gnd FILL
XFILL_8__474_ vdd gnd FILL
XFILL_8__543_ vdd gnd FILL
XFILL_0__510_ vdd gnd FILL
XFILL_0__441_ vdd gnd FILL
XFILL_0__372_ vdd gnd FILL
XFILL_2__319_ vdd gnd FILL
X_325_ _541_/B _607_/D _542_/B vdd gnd OR2X2
XFILL_4__350_ vdd gnd FILL
XFILL_9__508_ vdd gnd FILL
XFILL_4__281_ vdd gnd FILL
XFILL_7__492_ vdd gnd FILL
XFILL_9__439_ vdd gnd FILL
XFILL_1__337_ vdd gnd FILL
XFILL_1__406_ vdd gnd FILL
XFILL74550x28950 vdd gnd FILL
XFILL_4__479_ vdd gnd FILL
XFILL_4__617_ vdd gnd FILL
XFILL_4__548_ vdd gnd FILL
XFILL_5__315_ vdd gnd FILL
XFILL_8__457_ vdd gnd FILL
XFILL_8__526_ vdd gnd FILL
XFILL_8__388_ vdd gnd FILL
XFILL_0__424_ vdd gnd FILL
XFILL_0__355_ vdd gnd FILL
XFILL_0__286_ vdd gnd FILL
XFILL_3__497_ vdd gnd FILL
X_308_ _308_/A _308_/B _308_/C _616_/A vdd gnd OAI21X1
XFILL_4__402_ vdd gnd FILL
XFILL_4__333_ vdd gnd FILL
XFILL_7__475_ vdd gnd FILL
XFILL_7__613_ vdd gnd FILL
XFILL_7__544_ vdd gnd FILL
XFILL_8__311_ vdd gnd FILL
XFILL_3__420_ vdd gnd FILL
XFILL_3__351_ vdd gnd FILL
X_590_ _590_/D _606_/CLK _590_/Q vdd gnd DFFPOSX1
XFILL_3__282_ vdd gnd FILL
XFILL_6__493_ vdd gnd FILL
XFILL_8__509_ vdd gnd FILL
XFILL_0__338_ vdd gnd FILL
XFILL_0__407_ vdd gnd FILL
XFILL_3__618_ vdd gnd FILL
XFILL_3__549_ vdd gnd FILL
XFILL_4__316_ vdd gnd FILL
XFILL_7__458_ vdd gnd FILL
XFILL_7__527_ vdd gnd FILL
XFILL_7__389_ vdd gnd FILL
XFILL_2__498_ vdd gnd FILL
XFILL_3__403_ vdd gnd FILL
X_573_ _573_/D _573_/CLK _573_/Q vdd gnd DFFPOSX1
XFILL_3__334_ vdd gnd FILL
XFILL_6__614_ vdd gnd FILL
XFILL_6__545_ vdd gnd FILL
XFILL_1_CLKBUF1_insert4 vdd gnd FILL
XFILL_2_BUFX2_insert18 vdd gnd FILL
XFILL_6__476_ vdd gnd FILL
XFILL_7__312_ vdd gnd FILL
XFILL_2__421_ vdd gnd FILL
XFILL74250x25350 vdd gnd FILL
XFILL74850x72150 vdd gnd FILL
XFILL_2__283_ vdd gnd FILL
XFILL_2__352_ vdd gnd FILL
XFILL_5__494_ vdd gnd FILL
XFILL_2__619_ vdd gnd FILL
XFILL_9_BUFX2_insert24 vdd gnd FILL
XFILL_9_BUFX2_insert13 vdd gnd FILL
XFILL_9__541_ vdd gnd FILL
XFILL_6__330_ vdd gnd FILL
X_625_ _625_/A Vld vdd gnd BUFX2
X_487_ _578_/Q _493_/B _488_/C vdd gnd NAND2X1
XFILL_4_BUFX2_insert8 vdd gnd FILL
X_556_ _556_/A _556_/B _556_/C _598_/D vdd gnd OAI21X1
XFILL_3__317_ vdd gnd FILL
XFILL_1__370_ vdd gnd FILL
XFILL75750x57750 vdd gnd FILL
XFILL_6__459_ vdd gnd FILL
XFILL_6__528_ vdd gnd FILL
XFILL_8__490_ vdd gnd FILL
XFILL_1__499_ vdd gnd FILL
XFILL_6_CLKBUF1_insert6 vdd gnd FILL
XFILL_2__404_ vdd gnd FILL
XFILL_5__615_ vdd gnd FILL
XFILL_5__546_ vdd gnd FILL
XFILL_2__335_ vdd gnd FILL
XFILL_5__477_ vdd gnd FILL
X_410_ _410_/A _410_/B _410_/C _410_/D _567_/D vdd gnd AOI22X1
X_341_ _558_/Q _421_/B _342_/C vdd gnd NAND2X1
XFILL_6__313_ vdd gnd FILL
XFILL_9__455_ vdd gnd FILL
XFILL_9__386_ vdd gnd FILL
XFILL_1__422_ vdd gnd FILL
X_608_ _608_/D _612_/CLK _609_/D vdd gnd DFFPOSX1
XFILL_5_BUFX2_insert11 vdd gnd FILL
XFILL_1__284_ vdd gnd FILL
XFILL_5_BUFX2_insert22 vdd gnd FILL
XFILL_1__353_ vdd gnd FILL
X_539_ _607_/D _541_/B _590_/Q _540_/C vdd gnd OAI21X1
XFILL_4__495_ vdd gnd FILL
XFILL_5__400_ vdd gnd FILL
XFILL_5__331_ vdd gnd FILL
XFILL_8__473_ vdd gnd FILL
XFILL_8__542_ vdd gnd FILL
XFILL_2__318_ vdd gnd FILL
XFILL_0__440_ vdd gnd FILL
XFILL_0__371_ vdd gnd FILL
XFILL_5__529_ vdd gnd FILL
X_324_ _608_/D _541_/B vdd gnd INVX2
XFILL_4__280_ vdd gnd FILL
XFILL_7__491_ vdd gnd FILL
XFILL_9__507_ vdd gnd FILL
XFILL_1__405_ vdd gnd FILL
XFILL_9__369_ vdd gnd FILL
XFILL_4__616_ vdd gnd FILL
XFILL_1__336_ vdd gnd FILL
XFILL_4__478_ vdd gnd FILL
XFILL_1_BUFX2_insert20 vdd gnd FILL
XFILL_4__547_ vdd gnd FILL
XFILL_5__314_ vdd gnd FILL
XFILL_8__525_ vdd gnd FILL
XFILL_8__456_ vdd gnd FILL
XFILL_8__387_ vdd gnd FILL
XFILL_0__285_ vdd gnd FILL
XFILL_0__423_ vdd gnd FILL
XFILL_0__354_ vdd gnd FILL
XFILL_3__496_ vdd gnd FILL
X_307_ _308_/A _569_/Q _308_/C vdd gnd NAND2X1
XFILL75450x54150 vdd gnd FILL
XFILL_4__401_ vdd gnd FILL
XFILL_4__332_ vdd gnd FILL
XFILL_7__474_ vdd gnd FILL
XFILL_7__543_ vdd gnd FILL
XFILL_1__319_ vdd gnd FILL
XFILL_8__310_ vdd gnd FILL
XFILL_3__350_ vdd gnd FILL
XFILL_6__492_ vdd gnd FILL
XFILL_8__508_ vdd gnd FILL
XFILL_3__281_ vdd gnd FILL
XFILL_8__439_ vdd gnd FILL
XFILL_0__337_ vdd gnd FILL
XFILL_3__617_ vdd gnd FILL
XFILL_0__406_ vdd gnd FILL
XFILL_3__479_ vdd gnd FILL
XFILL_3__548_ vdd gnd FILL
XFILL_4__315_ vdd gnd FILL
XFILL_7__457_ vdd gnd FILL
XFILL_7__526_ vdd gnd FILL
XFILL_7__388_ vdd gnd FILL
XFILL_2__497_ vdd gnd FILL
X_572_ _572_/D _573_/CLK _572_/Q vdd gnd DFFPOSX1
XFILL_3__402_ vdd gnd FILL
XFILL_3__333_ vdd gnd FILL
XFILL_6__475_ vdd gnd FILL
XFILL_6__613_ vdd gnd FILL
XFILL_1_CLKBUF1_insert5 vdd gnd FILL
XFILL_6__544_ vdd gnd FILL
XFILL_2_BUFX2_insert19 vdd gnd FILL
XFILL_7__311_ vdd gnd FILL
XFILL_2__420_ vdd gnd FILL
XFILL_2__351_ vdd gnd FILL
XFILL_2__282_ vdd gnd FILL
XFILL_5__493_ vdd gnd FILL
XFILL_7__509_ vdd gnd FILL
XFILL_7_CLKBUF1_insert0 vdd gnd FILL
XFILL73650x28950 vdd gnd FILL
XFILL_9__471_ vdd gnd FILL
XFILL_2__618_ vdd gnd FILL
XFILL_9_BUFX2_insert25 vdd gnd FILL
XFILL_2__549_ vdd gnd FILL
XFILL_9__540_ vdd gnd FILL
X_624_ _624_/A Dout[9] vdd gnd BUFX2
X_555_ _598_/Q _556_/B _556_/C vdd gnd NAND2X1
X_486_ _486_/A _486_/B _488_/B vdd gnd NAND2X1
XFILL_4_BUFX2_insert9 vdd gnd FILL
XFILL_3__316_ vdd gnd FILL
XFILL_6__458_ vdd gnd FILL
XFILL_6__527_ vdd gnd FILL
XFILL_6__389_ vdd gnd FILL
XFILL_1__498_ vdd gnd FILL
XFILL_2__403_ vdd gnd FILL
XFILL_2__334_ vdd gnd FILL
XFILL_5__476_ vdd gnd FILL
XFILL_5__614_ vdd gnd FILL
XFILL_5__545_ vdd gnd FILL
X_340_ _452_/B _340_/Y vdd gnd INVX8
XFILL_6__312_ vdd gnd FILL
XFILL_9__454_ vdd gnd FILL
XFILL_9__523_ vdd gnd FILL
XFILL_5_BUFX2_insert12 vdd gnd FILL
XFILL_5_BUFX2_insert23 vdd gnd FILL
X_538_ _538_/A _538_/B _538_/C _589_/D vdd gnd OAI21X1
X_607_ _607_/D _612_/CLK _608_/D vdd gnd DFFPOSX1
XFILL_1__421_ vdd gnd FILL
X_469_ _511_/C _469_/B _477_/C vdd gnd NAND2X1
XFILL_1__283_ vdd gnd FILL
XFILL_1__352_ vdd gnd FILL
XFILL_4__494_ vdd gnd FILL
XFILL_5__330_ vdd gnd FILL
XFILL_1__619_ vdd gnd FILL
XFILL_8__541_ vdd gnd FILL
XFILL_8__472_ vdd gnd FILL
XFILL_2__317_ vdd gnd FILL
XFILL_0__370_ vdd gnd FILL
XFILL_5__459_ vdd gnd FILL
XFILL_5__528_ vdd gnd FILL
X_323_ Yin[0] _556_/A vdd gnd INVX1
XFILL_7__490_ vdd gnd FILL
XFILL_0__499_ vdd gnd FILL
XFILL_9__437_ vdd gnd FILL
XFILL_1__404_ vdd gnd FILL
XFILL_9__368_ vdd gnd FILL
XFILL_1__335_ vdd gnd FILL
XFILL_4__615_ vdd gnd FILL
XFILL_4__546_ vdd gnd FILL
XFILL_4__477_ vdd gnd FILL
XFILL_1_BUFX2_insert10 vdd gnd FILL
XFILL_1_BUFX2_insert21 vdd gnd FILL
XFILL_5__313_ vdd gnd FILL
XFILL_8__524_ vdd gnd FILL
XFILL_8__455_ vdd gnd FILL
XFILL_8__386_ vdd gnd FILL
XFILL_0__422_ vdd gnd FILL
XFILL73950x72150 vdd gnd FILL
XFILL_0__284_ vdd gnd FILL
XFILL_0__353_ vdd gnd FILL
X_306_ _581_/Q _308_/B vdd gnd INVX1
XFILL_3__495_ vdd gnd FILL
XFILL_4__400_ vdd gnd FILL
XFILL_7__542_ vdd gnd FILL
XFILL_4__331_ vdd gnd FILL
XFILL_7__473_ vdd gnd FILL
XFILL74850x57750 vdd gnd FILL
XFILL_1__318_ vdd gnd FILL
XFILL_4__529_ vdd gnd FILL
XFILL_3__280_ vdd gnd FILL
XFILL_6__491_ vdd gnd FILL
XFILL_8__507_ vdd gnd FILL
XFILL_8__438_ vdd gnd FILL
XFILL_0__405_ vdd gnd FILL
XFILL_8__369_ vdd gnd FILL
XFILL_3__616_ vdd gnd FILL
XFILL_0__336_ vdd gnd FILL
XFILL_3__547_ vdd gnd FILL
XFILL_3__478_ vdd gnd FILL
XFILL_4__314_ vdd gnd FILL
XFILL_7__525_ vdd gnd FILL
XFILL_7__456_ vdd gnd FILL
XFILL_7__387_ vdd gnd FILL
XFILL_2__496_ vdd gnd FILL
X_571_ _571_/D _605_/CLK _571_/Q vdd gnd DFFPOSX1
XFILL_3__401_ vdd gnd FILL
XFILL_1_CLKBUF1_insert6 vdd gnd FILL
XFILL_3__332_ vdd gnd FILL
XFILL_6__474_ vdd gnd FILL
XFILL_6__543_ vdd gnd FILL
XFILL_0__319_ vdd gnd FILL
XFILL_7__310_ vdd gnd FILL
XFILL_2__281_ vdd gnd FILL
XFILL_2__350_ vdd gnd FILL
XFILL_5__492_ vdd gnd FILL
XFILL_7__508_ vdd gnd FILL
XFILL_7__439_ vdd gnd FILL
XFILL_7_CLKBUF1_insert1 vdd gnd FILL
XFILL_2__617_ vdd gnd FILL
XFILL_9_BUFX2_insert15 vdd gnd FILL
XFILL_2__479_ vdd gnd FILL
XFILL_9__470_ vdd gnd FILL
XFILL_2__548_ vdd gnd FILL
X_485_ _490_/B _512_/C _486_/A vdd gnd NAND2X1
X_623_ _623_/A Dout[8] vdd gnd BUFX2
X_554_ _554_/A _554_/B _554_/C _597_/D vdd gnd OAI21X1
XFILL_3__315_ vdd gnd FILL
XFILL_6__457_ vdd gnd FILL
XFILL_6__526_ vdd gnd FILL
XFILL_6__388_ vdd gnd FILL
XFILL_1__497_ vdd gnd FILL
XFILL_5__613_ vdd gnd FILL
XFILL_2__402_ vdd gnd FILL
XFILL_2__333_ vdd gnd FILL
XFILL_5__475_ vdd gnd FILL
XFILL_5__544_ vdd gnd FILL
XFILL_6__311_ vdd gnd FILL
XFILL_9__522_ vdd gnd FILL
XFILL_9__384_ vdd gnd FILL
X_468_ _598_/Q _473_/A vdd gnd INVX1
XFILL_5_BUFX2_insert24 vdd gnd FILL
XFILL75450x39750 vdd gnd FILL
XFILL_1__420_ vdd gnd FILL
X_606_ Rdy _606_/CLK _607_/D vdd gnd DFFPOSX1
X_537_ Xin[1] _538_/B _538_/C vdd gnd NAND2X1
XFILL_5_BUFX2_insert13 vdd gnd FILL
XFILL_1__351_ vdd gnd FILL
XFILL_4__493_ vdd gnd FILL
XFILL_6__509_ vdd gnd FILL
XFILL_1__282_ vdd gnd FILL
X_399_ _399_/A _399_/B _442_/C _431_/C vdd gnd OAI21X1
XFILL_1__618_ vdd gnd FILL
XFILL_8__471_ vdd gnd FILL
XFILL_1__549_ vdd gnd FILL
XFILL_8__540_ vdd gnd FILL
XFILL_2__316_ vdd gnd FILL
XFILL_5__458_ vdd gnd FILL
X_322_ _463_/B _538_/B _322_/C _601_/D vdd gnd OAI21X1
XFILL_5__527_ vdd gnd FILL
XFILL_5__389_ vdd gnd FILL
XFILL_0__498_ vdd gnd FILL
XFILL_9__436_ vdd gnd FILL
XBUFX2_insert7 selXY _286_/A vdd gnd BUFX2
XFILL_9__505_ vdd gnd FILL
XFILL_9__298_ vdd gnd FILL
XFILL_1__403_ vdd gnd FILL
XFILL_1__334_ vdd gnd FILL
XFILL_4__476_ vdd gnd FILL
XFILL_4__614_ vdd gnd FILL
XFILL_4__545_ vdd gnd FILL
XFILL_1_BUFX2_insert11 vdd gnd FILL
XFILL_1_BUFX2_insert22 vdd gnd FILL
XFILL_5__312_ vdd gnd FILL
XFILL_8__454_ vdd gnd FILL
XFILL_8__523_ vdd gnd FILL
XFILL_8__385_ vdd gnd FILL
XFILL_0__421_ vdd gnd FILL
XFILL_0__352_ vdd gnd FILL
XFILL_0__283_ vdd gnd FILL
X_305_ _305_/A _502_/A _305_/C _615_/A vdd gnd OAI21X1
XFILL_3__494_ vdd gnd FILL
XFILL_4__330_ vdd gnd FILL
XFILL_0__619_ vdd gnd FILL
XFILL_7__541_ vdd gnd FILL
XFILL_7__472_ vdd gnd FILL
XFILL_1__317_ vdd gnd FILL
XFILL_4__459_ vdd gnd FILL
XFILL_4__528_ vdd gnd FILL
XFILL_6__490_ vdd gnd FILL
XFILL_8__437_ vdd gnd FILL
XFILL_8__506_ vdd gnd FILL
XFILL_8__299_ vdd gnd FILL
XFILL_0__404_ vdd gnd FILL
XFILL_8__368_ vdd gnd FILL
XFILL_0__335_ vdd gnd FILL
XFILL_3__615_ vdd gnd FILL
XFILL_2_CLKBUF1_insert0 vdd gnd FILL
XFILL_3__546_ vdd gnd FILL
XFILL_3__477_ vdd gnd FILL
XFILL75150x36150 vdd gnd FILL
XFILL_4__313_ vdd gnd FILL
XFILL_7__455_ vdd gnd FILL
XFILL_7__524_ vdd gnd FILL
XFILL_7__386_ vdd gnd FILL
XFILL_2__495_ vdd gnd FILL
XFILL75150x7350 vdd gnd FILL
X_570_ _570_/D _605_/CLK _570_/Q vdd gnd DFFPOSX1
XFILL_3__400_ vdd gnd FILL
XFILL_3__331_ vdd gnd FILL
XFILL_6__542_ vdd gnd FILL
XFILL_6__473_ vdd gnd FILL
XFILL_0__318_ vdd gnd FILL
XFILL_3__529_ vdd gnd FILL
XFILL_2__280_ vdd gnd FILL
XFILL_5__491_ vdd gnd FILL
XFILL_1_BUFX2_insert7 vdd gnd FILL
XFILL_7__507_ vdd gnd FILL
XFILL_7__438_ vdd gnd FILL
XFILL_7_CLKBUF1_insert2 vdd gnd FILL
XFILL_7__369_ vdd gnd FILL
XFILL_2__616_ vdd gnd FILL
XFILL_2__547_ vdd gnd FILL
XFILL_9_BUFX2_insert16 vdd gnd FILL
XFILL_2__478_ vdd gnd FILL
X_622_ _622_/A Dout[7] vdd gnd BUFX2
X_484_ _512_/C _490_/B _486_/B vdd gnd OR2X2
X_553_ _597_/Q _554_/B _554_/C vdd gnd NAND2X1
XFILL_3__314_ vdd gnd FILL
XFILL_6__525_ vdd gnd FILL
XFILL_6__456_ vdd gnd FILL
XFILL_6__387_ vdd gnd FILL
XFILL_1__496_ vdd gnd FILL
XFILL_2__401_ vdd gnd FILL
XFILL_2__332_ vdd gnd FILL
XFILL_5__474_ vdd gnd FILL
XFILL_5__543_ vdd gnd FILL
XFILL73950x57750 vdd gnd FILL
XFILL_6__310_ vdd gnd FILL
XFILL_9__452_ vdd gnd FILL
X_605_ _605_/D _605_/CLK _605_/Q vdd gnd DFFPOSX1
XFILL_9__383_ vdd gnd FILL
X_467_ _511_/C _598_/Q _469_/B _471_/B vdd gnd NAND3X1
XFILL_5_BUFX2_insert25 vdd gnd FILL
XFILL_1__281_ vdd gnd FILL
X_536_ _536_/A _538_/B _536_/C _588_/D vdd gnd OAI21X1
X_398_ _412_/A _412_/B _399_/B vdd gnd NAND2X1
XFILL_5_BUFX2_insert14 vdd gnd FILL
XFILL_1__350_ vdd gnd FILL
XFILL_4__492_ vdd gnd FILL
XFILL_6__508_ vdd gnd FILL
XFILL_6__439_ vdd gnd FILL
XFILL_1__617_ vdd gnd FILL
XFILL_1__479_ vdd gnd FILL
XFILL_8__470_ vdd gnd FILL
XFILL_1__548_ vdd gnd FILL
XFILL_2__315_ vdd gnd FILL
XFILL_5__526_ vdd gnd FILL
XFILL_5__457_ vdd gnd FILL
X_321_ Yin[1] _538_/B _322_/C vdd gnd NAND2X1
XFILL_5__388_ vdd gnd FILL
XFILL_0__497_ vdd gnd FILL
XFILL_9__504_ vdd gnd FILL
XFILL_9__297_ vdd gnd FILL
XBUFX2_insert8 selXY _308_/A vdd gnd BUFX2
XFILL_9__435_ vdd gnd FILL
XFILL_1__402_ vdd gnd FILL
XFILL_9__366_ vdd gnd FILL
XFILL_4__613_ vdd gnd FILL
X_519_ _611_/D _519_/B _550_/B vdd gnd NOR2X1
XFILL_1__333_ vdd gnd FILL
XFILL_4__475_ vdd gnd FILL
XFILL_4__544_ vdd gnd FILL
XFILL_1_BUFX2_insert12 vdd gnd FILL
XFILL_1_BUFX2_insert23 vdd gnd FILL
XFILL_5__311_ vdd gnd FILL
XFILL_8__453_ vdd gnd FILL
XFILL_8__522_ vdd gnd FILL
XFILL_8__384_ vdd gnd FILL
XFILL_0__420_ vdd gnd FILL
XFILL_0__351_ vdd gnd FILL
XFILL_3__493_ vdd gnd FILL
XFILL_5__509_ vdd gnd FILL
XFILL_0__282_ vdd gnd FILL
X_304_ _308_/A _568_/Q _305_/C vdd gnd NAND2X1
XFILL_0__618_ vdd gnd FILL
XFILL_7__471_ vdd gnd FILL
XFILL_0__549_ vdd gnd FILL
XFILL_7__540_ vdd gnd FILL
XFILL_9__418_ vdd gnd FILL
XFILL_9__349_ vdd gnd FILL
XFILL_1__316_ vdd gnd FILL
XFILL_4__458_ vdd gnd FILL
XFILL_4__527_ vdd gnd FILL
XFILL_4__389_ vdd gnd FILL
XFILL_8__505_ vdd gnd FILL
XFILL_8__436_ vdd gnd FILL
XFILL_8__367_ vdd gnd FILL
XFILL_8__298_ vdd gnd FILL
XFILL_0__403_ vdd gnd FILL
XFILL_0__334_ vdd gnd FILL
XFILL_3__476_ vdd gnd FILL
XFILL_3__614_ vdd gnd FILL
XFILL_3__545_ vdd gnd FILL
XFILL_2_CLKBUF1_insert1 vdd gnd FILL
XCLKBUF1_insert0 clk _581_/CLK vdd gnd CLKBUF1
XFILL_4__312_ vdd gnd FILL
XFILL_7__454_ vdd gnd FILL
XFILL_7__523_ vdd gnd FILL
XFILL74550x39750 vdd gnd FILL
XFILL_7__385_ vdd gnd FILL
XFILL_2__494_ vdd gnd FILL
XFILL_3__330_ vdd gnd FILL
XFILL_6__472_ vdd gnd FILL
XFILL_6__541_ vdd gnd FILL
XFILL_8__419_ vdd gnd FILL
XFILL_0__317_ vdd gnd FILL
XFILL_3__459_ vdd gnd FILL
XFILL_3__528_ vdd gnd FILL
XFILL_1_BUFX2_insert8 vdd gnd FILL
XFILL_5__490_ vdd gnd FILL
XFILL_7__437_ vdd gnd FILL
XFILL_7__506_ vdd gnd FILL
XFILL_7__368_ vdd gnd FILL
XFILL_7__299_ vdd gnd FILL
XFILL_7_CLKBUF1_insert3 vdd gnd FILL
XFILL_2__615_ vdd gnd FILL
XFILL_2__477_ vdd gnd FILL
XFILL_2__546_ vdd gnd FILL
XFILL_9_BUFX2_insert17 vdd gnd FILL
X_621_ _621_/A Dout[6] vdd gnd BUFX2
X_483_ _483_/A _483_/B _509_/A _512_/C vdd gnd OAI21X1
X_552_ _556_/A _554_/B _552_/C _596_/D vdd gnd OAI21X1
XFILL_3__313_ vdd gnd FILL
XFILL_6__455_ vdd gnd FILL
XFILL_6__524_ vdd gnd FILL
XFILL_6__386_ vdd gnd FILL
XFILL_1__495_ vdd gnd FILL
XFILL_2__400_ vdd gnd FILL
XFILL_2__331_ vdd gnd FILL
XFILL_5__542_ vdd gnd FILL
XFILL_5__473_ vdd gnd FILL
XFILL_9__451_ vdd gnd FILL
XFILL_9__520_ vdd gnd FILL
XFILL_2__529_ vdd gnd FILL
X_604_ _604_/D _605_/CLK _604_/Q vdd gnd DFFPOSX1
X_535_ Xin[0] _538_/B _536_/C vdd gnd NAND2X1
X_466_ _494_/A _496_/B _469_/B vdd gnd NAND2X1
X_397_ _586_/Q _587_/Q _412_/B vdd gnd NOR2X1
XFILL_5_BUFX2_insert15 vdd gnd FILL
XFILL_1__280_ vdd gnd FILL
XFILL_4__491_ vdd gnd FILL
XFILL_6__507_ vdd gnd FILL
XFILL_6__438_ vdd gnd FILL
XFILL_6__369_ vdd gnd FILL
XFILL_1__616_ vdd gnd FILL
XFILL_1__547_ vdd gnd FILL
XFILL_1__478_ vdd gnd FILL
XFILL_2__314_ vdd gnd FILL
XFILL_5__525_ vdd gnd FILL
XFILL_5__456_ vdd gnd FILL
X_320_ _601_/Q _463_/B vdd gnd INVX1
XFILL_5__387_ vdd gnd FILL
XFILL_9__503_ vdd gnd FILL
XFILL_0__496_ vdd gnd FILL
XFILL_9__296_ vdd gnd FILL
XBUFX2_insert9 selXY _305_/A vdd gnd BUFX2
X_518_ _612_/D _525_/B _519_/B vdd gnd NAND2X1
XFILL_9__365_ vdd gnd FILL
XFILL_1__401_ vdd gnd FILL
X_449_ _603_/Q _450_/A _451_/B vdd gnd NAND2X1