* NGSPICE file created from cordic_element_Fixed.ext - technology: scmos

.subckt INVX2 A Y vdd gnd
M1000 Y A vdd vdd pfet w=12u l=0.6u
+  ad=25.2p pd=28.2u as=25.2p ps=28.2u
M1001 Y A gnd gnd nfet w=6u l=0.6u
+  ad=12.6p pd=16.2u as=12.6p ps=16.2u
.ends

.subckt NAND2X1 A B Y vdd gnd
M1000 a_27_14# A gnd gnd nfet w=6u l=0.6u
+  ad=2.7p pd=6.9u as=12.6p ps=16.2u
M1001 Y B a_27_14# gnd nfet w=6u l=0.6u
+  ad=12.6p pd=16.2u as=2.7p ps=6.9u
M1002 vdd B Y vdd pfet w=6u l=0.6u
+  ad=12.6p pd=16.2u as=7.2p ps=8.4u
M1003 Y A vdd vdd pfet w=6u l=0.6u
+  ad=7.2p pd=8.4u as=12.6p ps=16.2u
.ends

.subckt OAI21X1 A B C Y vdd gnd
M1000 Y C a_7_14# gnd nfet w=6u l=0.6u
+  ad=12.6p pd=16.2u as=7.2p ps=8.4u
M1001 a_30_146# A vdd vdd pfet w=12u l=0.6u
+  ad=3.6p pd=12.6u as=25.2p ps=28.2u
M1002 vdd C Y vdd pfet w=6u l=0.6u
+  ad=12.6p pd=16.2u as=14.4p ps=14.7u
M1003 gnd A a_7_14# gnd nfet w=6u l=0.6u
+  ad=7.2p pd=8.4u as=12.6p ps=16.2u
M1004 Y B a_30_146# vdd pfet w=12u l=0.6u
+  ad=14.4p pd=14.7u as=3.6p ps=12.6u
M1005 a_7_14# B gnd gnd nfet w=6u l=0.6u
+  ad=7.2p pd=8.4u as=7.2p ps=8.4u
.ends

.subckt NAND3X1 A B C Y vdd gnd
M1000 Y C a_34_14# gnd nfet w=9u l=0.6u
+  ad=18.9p pd=22.2u as=2.7p ps=9.6u
M1001 a_26_14# A gnd gnd nfet w=9u l=0.6u
+  ad=2.7p pd=9.6u as=18.9p ps=22.2u
M1002 vdd B Y vdd pfet w=6u l=0.6u
+  ad=7.2p pd=8.4u as=7.2p ps=8.4u
M1003 a_34_14# B a_26_14# gnd nfet w=9u l=0.6u
+  ad=2.7p pd=9.6u as=2.7p ps=9.6u
M1004 Y C vdd vdd pfet w=6u l=0.6u
+  ad=12.6p pd=16.2u as=7.2p ps=8.4u
M1005 Y A vdd vdd pfet w=6u l=0.6u
+  ad=7.2p pd=8.4u as=12.6p ps=16.2u
.ends

.subckt NOR2X1 A B Y vdd gnd
M1000 a_25_146# A vdd vdd pfet w=12u l=0.6u
+  ad=3.6p pd=12.6u as=25.2p ps=28.2u
M1001 Y A gnd gnd nfet w=3u l=0.6u
+  ad=3.6p pd=5.4u as=6.3p ps=10.2u
M1002 Y B a_25_146# vdd pfet w=12u l=0.6u
+  ad=25.2p pd=28.2u as=3.6p ps=12.6u
M1003 gnd B Y gnd nfet w=3u l=0.6u
+  ad=6.3p pd=10.2u as=3.6p ps=5.4u
.ends

.subckt AOI22X1 A B C D Y vdd gnd
M1000 gnd C a_56_14# gnd nfet w=6u l=0.6u
+  ad=12.6p pd=16.2u as=1.8p ps=6.6u
M1001 vdd A a_7_146# vdd pfet w=12u l=0.6u
+  ad=14.4p pd=14.4u as=25.2p ps=28.2u
M1002 Y D a_7_146# vdd pfet w=12u l=0.6u
+  ad=14.4p pd=14.4u as=14.4p ps=14.4u
M1003 a_28_14# A gnd gnd nfet w=6u l=0.6u
+  ad=1.8p pd=6.6u as=12.6p ps=16.2u
M1004 Y B a_28_14# gnd nfet w=6u l=0.6u
+  ad=7.2p pd=8.4u as=1.8p ps=6.6u
M1005 a_7_146# C Y vdd pfet w=12u l=0.6u
+  ad=25.2p pd=28.2u as=14.4p ps=14.4u
M1006 a_7_146# B vdd vdd pfet w=12u l=0.6u
+  ad=14.4p pd=14.4u as=14.4p ps=14.4u
M1007 a_56_14# D Y gnd nfet w=6u l=0.6u
+  ad=1.8p pd=6.6u as=7.2p ps=8.4u
.ends

.subckt INVX1 A Y vdd gnd
M1000 Y A gnd gnd nfet w=3u l=0.6u
+  ad=6.3p pd=10.2u as=6.3p ps=10.2u
M1001 Y A vdd vdd pfet w=6u l=0.6u
+  ad=12.6p pd=16.2u as=12.6p ps=16.2u
.ends

.subckt AOI21X1 A B C Y vdd gnd
M1000 vdd A a_7_146# vdd pfet w=12u l=0.6u
+  ad=14.4p pd=14.4u as=25.2p ps=28.2u
M1001 Y C a_7_146# vdd pfet w=12u l=0.6u
+  ad=25.2p pd=28.2u as=14.4p ps=14.4u
M1002 a_28_14# A gnd gnd nfet w=6u l=0.6u
+  ad=1.8p pd=6.6u as=12.6p ps=16.2u
M1003 Y B a_28_14# gnd nfet w=6u l=0.6u
+  ad=7.2p pd=8.7u as=1.8p ps=6.6u
M1004 a_7_146# B vdd vdd pfet w=12u l=0.6u
+  ad=14.4p pd=14.4u as=14.4p ps=14.4u
M1005 gnd C Y gnd nfet w=3u l=0.6u
+  ad=6.3p pd=10.2u as=7.2p ps=8.7u
.ends

.subckt BUFX2 A Y vdd gnd
M1000 Y a_7_14# vdd vdd pfet w=12u l=0.6u
+  ad=25.2p pd=28.2u as=14.4p ps=14.7u
M1001 gnd A a_7_14# gnd nfet w=3u l=0.6u
+  ad=7.2p pd=8.7u as=6.3p ps=10.2u
M1002 Y a_7_14# gnd gnd nfet w=6u l=0.6u
+  ad=12.6p pd=16.2u as=7.2p ps=8.7u
M1003 vdd A a_7_14# vdd pfet w=6u l=0.6u
+  ad=14.4p pd=14.7u as=12.6p ps=16.2u
.ends

.subckt DFFPOSX1 D CLK Q vdd gnd
M1000 vdd Q a_189_206# vdd pfet w=3u l=0.6u
+  ad=10.125p pd=14.7u as=0.9p ps=3.6u
M1001 a_83_186# a_11_14# a_59_14# vdd pfet w=6u l=0.6u
+  ad=3.6p pd=7.2u as=7.2p ps=8.4u
M1002 a_87_10# a_59_14# gnd gnd nfet w=3u l=0.6u
+  ad=6.3p pd=10.2u as=4.05p ps=5.7u
M1003 gnd CLK a_11_14# gnd nfet w=6u l=0.6u
+  ad=5.85p pd=8.4u as=12.6p ps=16.2u
M1004 gnd a_87_10# a_81_14# gnd nfet w=3u l=0.6u
+  ad=4.05p pd=5.7u as=1.35p ps=3.9u
M1005 a_159_14# a_87_10# gnd gnd nfet w=3u l=0.6u
+  ad=0.9p pd=3.6u as=6.3p ps=10.2u
M1006 a_49_186# D vdd vdd pfet w=6u l=0.6u
+  ad=4.5p pd=7.5u as=11.25p ps=14.4u
M1007 vdd a_87_10# a_83_186# vdd pfet w=6u l=0.6u
+  ad=7.2p pd=8.4u as=3.6p ps=7.2u
M1008 Q a_167_14# gnd gnd nfet w=6u l=0.6u
+  ad=12.6p pd=16.2u as=6.975p ps=8.7u
M1009 Q a_167_14# vdd vdd pfet w=12u l=0.6u
+  ad=25.2p pd=28.2u as=10.125p ps=14.7u
M1010 a_167_14# CLK a_159_14# gnd nfet w=3u l=0.6u
+  ad=3.6p pd=5.4u as=0.9p ps=3.6u
M1011 a_49_14# D gnd gnd nfet w=3u l=0.6u
+  ad=1.35p pd=3.9u as=5.85p ps=8.4u
M1012 a_87_10# a_59_14# vdd vdd pfet w=6u l=0.6u
+  ad=12.6p pd=16.2u as=7.2p ps=8.4u
M1013 a_59_14# CLK a_49_186# vdd pfet w=6u l=0.6u
+  ad=7.2p pd=8.4u as=4.5p ps=7.5u
M1014 a_161_186# a_87_10# vdd vdd pfet w=6u l=0.6u
+  ad=1.8p pd=6.6u as=12.6p ps=16.2u
M1015 a_189_206# CLK a_167_14# vdd pfet w=3u l=0.6u
+  ad=0.9p pd=3.6u as=6.075p ps=8.4u
M1016 a_59_14# a_11_14# a_49_14# gnd nfet w=3u l=0.6u
+  ad=4.05p pd=5.7u as=1.35p ps=3.9u
M1017 a_187_14# a_11_14# a_167_14# gnd nfet w=3u l=0.6u
+  ad=1.35p pd=3.9u as=3.6p ps=5.4u
M1018 vdd CLK a_11_14# vdd pfet w=12u l=0.6u
+  ad=11.25p pd=14.4u as=25.2p ps=28.2u
M1019 gnd Q a_187_14# gnd nfet w=3u l=0.6u
+  ad=6.975p pd=8.7u as=1.35p ps=3.9u
M1020 a_167_14# a_11_14# a_161_186# vdd pfet w=6u l=0.6u
+  ad=6.075p pd=8.4u as=1.8p ps=6.6u
M1021 a_81_14# CLK a_59_14# gnd nfet w=3u l=0.6u
+  ad=1.35p pd=3.9u as=4.05p ps=5.7u
.ends

.subckt MUX2X1 A B S Y vdd gnd
M1000 a_75_22# S Y gnd nfet w=6u l=0.6u
+  ad=2.7p pd=6.9u as=7.2p ps=8.4u
M1001 gnd S a_7_22# gnd nfet w=3u l=0.6u
+  ad=6.3p pd=8.4u as=6.3p ps=10.2u
M1002 Y S a_45_138# vdd pfet w=12u l=0.6u
+  ad=14.49p pd=15.6u as=5.4p ps=12.9u
M1003 gnd A a_75_22# gnd nfet w=6u l=0.6u
+  ad=12.6p pd=16.2u as=2.7p ps=6.9u
M1004 vdd A a_75_146# vdd pfet w=12u l=0.6u
+  ad=25.2p pd=28.2u as=5.4p ps=12.9u
M1005 a_45_138# B vdd vdd pfet w=12u l=0.6u
+  ad=5.4p pd=12.9u as=11.7p ps=14.4u
M1006 a_45_22# B gnd gnd nfet w=6u l=0.6u
+  ad=2.7p pd=6.9u as=6.3p ps=8.4u
M1007 Y a_7_22# a_45_22# gnd nfet w=6u l=0.6u
+  ad=7.2p pd=8.4u as=2.7p ps=6.9u
M1008 a_75_146# a_7_22# Y vdd pfet w=12u l=0.6u
+  ad=5.4p pd=12.9u as=14.49p ps=15.6u
M1009 vdd S a_7_22# vdd pfet w=6u l=0.6u
+  ad=11.7p pd=14.4u as=12.6p ps=16.2u
.ends

.subckt AND2X2 A B Y vdd gnd
M1000 a_25_14# A a_7_14# gnd nfet w=6u l=0.6u
+  ad=2.7p pd=6.9u as=12.6p ps=16.2u
M1001 gnd B a_25_14# gnd nfet w=6u l=0.6u
+  ad=7.2p pd=8.4u as=2.7p ps=6.9u
M1002 vdd B a_7_14# vdd pfet w=6u l=0.6u
+  ad=14.4p pd=14.7u as=8.1p ps=8.7u
M1003 Y a_7_14# gnd gnd nfet w=6u l=0.6u
+  ad=12.6p pd=16.2u as=7.2p ps=8.4u
M1004 Y a_7_14# vdd vdd pfet w=12u l=0.6u
+  ad=25.2p pd=28.2u as=14.4p ps=14.7u
M1005 a_7_14# A vdd vdd pfet w=6u l=0.6u
+  ad=8.1p pd=8.7u as=12.6p ps=16.2u
.ends

.subckt INVX4 A Y vdd gnd
M1000 Y A vdd vdd pfet w=12u l=0.6u
+  ad=14.4p pd=14.4u as=25.2p ps=28.2u
M1001 Y A gnd gnd nfet w=6u l=0.6u
+  ad=7.2p pd=8.4u as=12.6p ps=16.2u
M1002 gnd A Y gnd nfet w=6u l=0.6u
+  ad=12.6p pd=16.2u as=7.2p ps=8.4u
M1003 vdd A Y vdd pfet w=12u l=0.6u
+  ad=25.2p pd=28.2u as=14.4p ps=14.4u
.ends

.subckt OAI22X1 A B C D Y vdd gnd
M1000 Y D a_7_14# gnd nfet w=6u l=0.6u
+  ad=7.2p pd=8.4u as=7.2p ps=8.4u
M1001 a_25_146# A vdd vdd pfet w=12u l=0.6u
+  ad=5.4p pd=12.9u as=25.2p ps=28.2u
M1002 a_65_146# D Y vdd pfet w=12u l=0.6u
+  ad=5.4p pd=12.9u as=23.4p ps=15.9u
M1003 gnd A a_7_14# gnd nfet w=6u l=0.6u
+  ad=7.2p pd=8.4u as=12.6p ps=16.2u
M1004 a_7_14# C Y gnd nfet w=6u l=0.6u
+  ad=12.6p pd=16.2u as=7.2p ps=8.4u
M1005 a_7_14# B gnd gnd nfet w=6u l=0.6u
+  ad=7.2p pd=8.4u as=7.2p ps=8.4u
M1006 Y B a_25_146# vdd pfet w=12u l=0.6u
+  ad=23.4p pd=15.9u as=5.4p ps=12.9u
M1007 vdd C a_65_146# vdd pfet w=12u l=0.6u
+  ad=25.2p pd=28.2u as=5.4p ps=12.9u
.ends

.subckt OR2X2 A B Y vdd gnd
M1000 Y a_7_146# gnd gnd nfet w=6u l=0.6u
+  ad=12.6p pd=16.2u as=6.3p ps=8.4u
M1001 a_25_146# A a_7_146# vdd pfet w=12u l=0.6u
+  ad=5.4p pd=12.9u as=25.2p ps=28.2u
M1002 a_7_146# A gnd gnd nfet w=3u l=0.6u
+  ad=3.6p pd=5.4u as=6.3p ps=10.2u
M1003 Y a_7_146# vdd vdd pfet w=12u l=0.6u
+  ad=25.2p pd=28.2u as=14.4p ps=14.4u
M1004 gnd B a_7_146# gnd nfet w=3u l=0.6u
+  ad=6.3p pd=8.4u as=3.6p ps=5.4u
M1005 vdd B a_25_146# vdd pfet w=12u l=0.6u
+  ad=14.4p pd=14.4u as=5.4p ps=12.9u
.ends

.subckt INVX8 A Y vdd gnd
M1000 Y A gnd gnd nfet w=6u l=0.6u
+  ad=7.2p pd=8.4u as=7.2p ps=8.4u
M1001 Y A vdd vdd pfet w=12u l=0.6u
+  ad=14.4p pd=14.4u as=25.2p ps=28.2u
M1002 Y A vdd vdd pfet w=12u l=0.6u
+  ad=14.4p pd=14.4u as=14.4p ps=14.4u
M1003 Y A gnd gnd nfet w=6u l=0.6u
+  ad=7.2p pd=8.4u as=12.6p ps=16.2u
M1004 gnd A Y gnd nfet w=6u l=0.6u
+  ad=12.6p pd=16.2u as=7.2p ps=8.4u
M1005 vdd A Y vdd pfet w=12u l=0.6u
+  ad=25.2p pd=28.2u as=14.4p ps=14.4u
M1006 gnd A Y gnd nfet w=6u l=0.6u
+  ad=7.2p pd=8.4u as=7.2p ps=8.4u
M1007 vdd A Y vdd pfet w=12u l=0.6u
+  ad=14.4p pd=14.4u as=14.4p ps=14.4u
.ends

.subckt CLKBUF1 A Y vdd gnd
M1000 Y a_105_14# vdd vdd pfet w=12u l=0.6u
+  ad=14.4p pd=14.4u as=14.4p ps=14.4u
M1001 a_65_14# a_25_14# gnd gnd nfet w=6u l=0.6u
+  ad=7.2p pd=8.4u as=7.2p ps=8.4u
M1002 a_105_14# a_65_14# vdd vdd pfet w=12u l=0.6u
+  ad=14.4p pd=14.4u as=14.4p ps=14.4u
M1003 Y a_105_14# gnd gnd nfet w=6u l=0.6u
+  ad=7.2p pd=8.4u as=7.2p ps=8.4u
M1004 a_25_14# A vdd vdd pfet w=12u l=0.6u
+  ad=14.4p pd=14.4u as=25.2p ps=28.2u
M1005 a_65_14# a_25_14# vdd vdd pfet w=12u l=0.6u
+  ad=14.4p pd=14.4u as=14.4p ps=14.4u
M1006 a_25_14# A gnd gnd nfet w=6u l=0.6u
+  ad=7.2p pd=8.4u as=12.6p ps=16.2u
M1007 gnd a_25_14# a_65_14# gnd nfet w=6u l=0.6u
+  ad=7.2p pd=8.4u as=7.2p ps=8.4u
M1008 a_105_14# a_65_14# gnd gnd nfet w=6u l=0.6u
+  ad=7.2p pd=8.4u as=7.2p ps=8.4u
M1009 gnd a_105_14# Y gnd nfet w=6u l=0.6u
+  ad=12.6p pd=16.2u as=7.2p ps=8.4u
M1010 vdd a_65_14# a_105_14# vdd pfet w=12u l=0.6u
+  ad=14.4p pd=14.4u as=14.4p ps=14.4u
M1011 vdd a_105_14# Y vdd pfet w=12u l=0.6u
+  ad=25.2p pd=28.2u as=14.4p ps=14.4u
M1012 vdd a_25_14# a_65_14# vdd pfet w=12u l=0.6u
+  ad=14.4p pd=14.4u as=14.4p ps=14.4u
M1013 gnd A a_25_14# gnd nfet w=6u l=0.6u
+  ad=7.2p pd=8.4u as=7.2p ps=8.4u
M1014 vdd A a_25_14# vdd pfet w=12u l=0.6u
+  ad=14.4p pd=14.4u as=14.4p ps=14.4u
M1015 gnd a_65_14# a_105_14# gnd nfet w=6u l=0.6u
+  ad=7.2p pd=8.4u as=7.2p ps=8.4u
.ends

.subckt NOR3X1 A B C Y vdd gnd
M1000 gnd B Y gnd nfet w=3u l=0.6u
+  ad=3.6p pd=5.4u as=3.6p ps=5.4u
M1001 a_7_166# A vdd vdd pfet w=9u l=0.6u
+  ad=10.8p pd=11.4u as=10.8p ps=11.4u
M1002 a_7_166# B a_65_166# vdd pfet w=9u l=0.6u
+  ad=18.9p pd=22.2u as=10.8p ps=11.4u
M1003 a_65_166# C Y vdd pfet w=9u l=0.6u
+  ad=18.9p pd=22.2u as=10.8p ps=11.4u
M1004 Y C gnd gnd nfet w=3u l=0.6u
+  ad=6.3p pd=10.2u as=3.6p ps=5.4u
M1005 a_65_166# B a_7_166# vdd pfet w=9u l=0.6u
+  ad=10.8p pd=11.4u as=10.8p ps=11.4u
M1006 vdd A a_7_166# vdd pfet w=9u l=0.6u
+  ad=10.8p pd=11.4u as=18.9p ps=22.2u
M1007 Y C a_65_166# vdd pfet w=9u l=0.6u
+  ad=10.8p pd=11.4u as=18.9p ps=22.2u
M1008 Y A gnd gnd nfet w=3u l=0.6u
+  ad=3.6p pd=5.4u as=7.2p ps=10.8u
.ends

.subckt cordic_element_Fixed gnd vdd Ain[1] Ain[0] Aout[1] Aout[0] ISin ISout Rdy
+ Stg[2] Stg[1] Stg[0] Vld Xin[1] Xin[0] Xout[1] Xout[0] Yin[1] Yin[0] Yout[1] Yout[0]
+ clk
X_1270_ _986_/S _1511_/A vdd gnd INVX2
X_1606_ _1607_/A _1606_/B _1607_/C vdd gnd NAND2X1
X_1399_ _1400_/B _1399_/B _1399_/C _1402_/C vdd gnd OAI21X1
X_1468_ Ain[0] _1471_/B _1469_/C vdd gnd NAND2X1
X_1537_ _1537_/A _1537_/B _1537_/C _1579_/C vdd gnd OAI21X1
X_981_ _981_/A _981_/B _981_/C _992_/B vdd gnd NAND3X1
X_1253_ _1253_/A _1253_/B _1254_/A vdd gnd NOR2X1
X_1322_ _1322_/A _1344_/A _1343_/A vdd gnd NAND2X1
X_1184_ _1184_/A _1184_/B _1184_/C _1240_/B vdd gnd NAND3X1
X_895_ _905_/A _925_/A _923_/C _895_/D _896_/C vdd gnd AOI22X1
X_964_ _964_/A _992_/A vdd gnd INVX1
X_1236_ _1252_/B _1236_/B _1565_/B _1237_/B vdd gnd OAI21X1
X_1305_ _1308_/B _1320_/A vdd gnd INVX1
X_1098_ _1098_/A _1098_/B _996_/C _1099_/B vdd gnd AOI21X1
X_1167_ _1632_/B _1446_/A _1210_/C vdd gnd NOR2X1
XBUFX2_insert0 Stg[0] _983_/S vdd gnd BUFX2
X_878_ _924_/A _878_/B _878_/C _878_/Y vdd gnd OAI21X1
X_947_ _947_/A _984_/S _948_/B vdd gnd NAND2X1
X_1021_ _933_/B _1036_/B _1049_/A vdd gnd NOR2X1
X_1785_ _1785_/D _1785_/CLK _1785_/Q vdd gnd DFFPOSX1
X_1219_ _1239_/B _1239_/A _1238_/B vdd gnd NAND2X1
X_1570_ _981_/A _1609_/A _1609_/C _1575_/A vdd gnd NAND3X1
X_1004_ _1004_/A _1060_/A _934_/S _1005_/B vdd gnd MUX2X1
X_1768_ _1768_/D _1790_/CLK _1768_/Q vdd gnd DFFPOSX1
X_1699_ _1699_/A _1699_/B _1699_/C _1707_/A vdd gnd NAND3X1
X_1622_ _1708_/A _1651_/A vdd gnd INVX1
X_1484_ _1484_/A _1484_/B _1484_/C _1785_/D vdd gnd OAI21X1
X_1553_ _1632_/A _946_/A _1553_/C _1563_/B vdd gnd AOI21X1
X_1536_ _1536_/A _1726_/C vdd gnd INVX2
X_1605_ _1605_/A _1605_/B _1605_/C _1692_/B vdd gnd AOI21X1
X_1398_ _1398_/A _1398_/B _1398_/C _1751_/D vdd gnd OAI21X1
X_1467_ _905_/A _992_/A _1467_/C _1777_/D vdd gnd OAI21X1
X_980_ _980_/A _980_/B _988_/S _981_/C vdd gnd MUX2X1
X_1252_ _1253_/A _1252_/B _1720_/B _1255_/B vdd gnd OAI21X1
X_1321_ _1344_/A _1322_/A _1345_/A _1325_/A vdd gnd AOI21X1
X_1183_ _1183_/A _1183_/B _1240_/A vdd gnd AND2X2
X_1519_ _979_/S _979_/A _1521_/B vdd gnd NAND2X1
X_894_ _922_/A _894_/B _894_/C _896_/B vdd gnd AOI21X1
X_963_ _963_/A _963_/B _988_/S _994_/B vdd gnd MUX2X1
X_1166_ _1166_/A _1186_/A _1166_/C _1192_/B vdd gnd NAND3X1
X_1235_ _1253_/B _1235_/B _1236_/B vdd gnd NOR2X1
X_1304_ _1304_/A _1304_/B _1308_/B vdd gnd NAND2X1
XBUFX2_insert1 Stg[0] _1565_/A vdd gnd BUFX2
X_1097_ _1097_/A _1097_/B _1098_/B vdd gnd NAND2X1
X_877_ _923_/A _877_/B _923_/C _877_/D _878_/C vdd gnd AOI22X1
X_946_ _946_/A _946_/Y vdd gnd INVX4
X_1020_ _923_/B _1311_/A _1047_/C vdd gnd NAND2X1
X_1784_ _1784_/D _1785_/CLK _1784_/Q vdd gnd DFFPOSX1
X_1149_ _1253_/A _1186_/C _1149_/C _1164_/B vdd gnd OAI21X1
X_1218_ _1218_/A _1218_/B _1541_/B _1239_/B vdd gnd OAI21X1
X_929_ _982_/S _982_/B _930_/C vdd gnd NAND2X1
X_1003_ _1026_/A _944_/A _1003_/C _1004_/A vdd gnd OAI21X1
X_1698_ _1701_/A _1699_/C vdd gnd INVX1
X_1767_ _1767_/D _1790_/CLK _1767_/Q vdd gnd DFFPOSX1
X_1552_ _979_/S _1552_/B _1552_/C _1632_/A vdd gnd OAI21X1
X_1621_ _893_/C _953_/B _1621_/C _1726_/C _1802_/D vdd gnd AOI22X1
X_1483_ Ain[1] _1484_/B _1484_/C vdd gnd NAND2X1
X_1535_ _905_/D _1562_/A vdd gnd INVX1
X_1604_ _1604_/A _1604_/B _1604_/C _1679_/B vdd gnd NAND3X1
X_1397_ _1400_/B _1397_/B _1811_/A _1398_/A vdd gnd OAI21X1
X_1466_ _905_/A Yin[1] _1467_/C vdd gnd NAND2X1
X_1320_ _1320_/A _1320_/B _1320_/C _1345_/A vdd gnd OAI21X1
X_1182_ _1182_/A _1182_/B _1183_/A vdd gnd NAND2X1
X_1251_ _1254_/C _1720_/B vdd gnd INVX1
X_1449_ _1664_/C _1475_/B _1449_/C _1768_/D vdd gnd OAI21X1
X_1518_ _947_/A _1518_/B _1518_/C _1522_/C vdd gnd NAND3X1
X_893_ _921_/A _893_/B _893_/C _921_/D _894_/C vdd gnd OAI22X1
X_962_ _962_/A _962_/B _979_/S _963_/A vdd gnd MUX2X1
X_1303_ _1304_/A _1304_/B _1307_/A vdd gnd NOR2X1
X_1096_ _1097_/B _1097_/A _1098_/A vdd gnd OR2X2
X_1165_ _1182_/A _1165_/B _1179_/A vdd gnd NOR2X1
X_1234_ _1234_/A _1254_/B _1252_/B vdd gnd NOR2X1
XBUFX2_insert2 Stg[0] _986_/S vdd gnd BUFX2
X_945_ _995_/B _950_/B vdd gnd INVX1
X_876_ _876_/A _876_/B _923_/C vdd gnd NOR2X1
X_1783_ _1783_/D _1794_/CLK _1783_/Q vdd gnd DFFPOSX1
X_1079_ _1766_/Q _1699_/A vdd gnd INVX1
X_1148_ _1471_/A _1186_/A _1148_/C _1164_/A vdd gnd NAND3X1
X_1217_ _1230_/B _1230_/C _1218_/A vdd gnd NOR2X1
X_928_ _983_/A _930_/B vdd gnd INVX1
X_1002_ _1026_/A _964_/A _1003_/C vdd gnd NAND2X1
X_1697_ _1718_/B _1718_/C _1718_/A _1701_/A vdd gnd AOI21X1
X_1766_ _1766_/D _1790_/CLK _1766_/Q vdd gnd DFFPOSX1
X_1482_ _1482_/A _1484_/B _1482_/C _1784_/D vdd gnd OAI21X1
X_1551_ _979_/S _979_/B _1552_/C vdd gnd NAND2X1
X_1620_ _1709_/A _1655_/B _1620_/C _1621_/C vdd gnd OAI21X1
X_1749_ _1749_/D _1797_/CLK _882_/A vdd gnd DFFPOSX1
X_1465_ _905_/A _944_/A _1465_/C _1776_/D vdd gnd OAI21X1
X_1534_ _1536_/A _1534_/B _1534_/C _1798_/D vdd gnd OAI21X1
X_1603_ _903_/B _1691_/B _1603_/C _1801_/D vdd gnd OAI21X1
X_1396_ _1397_/B _1400_/B _1398_/B vdd gnd AND2X2
X_1181_ _908_/B _1369_/B _1206_/C vdd gnd NAND2X1
X_1250_ _1250_/A _1250_/B _1254_/C vdd gnd NAND2X1
X_1448_ Yin[0] _1475_/B _1449_/C vdd gnd NAND2X1
X_1517_ _984_/S _972_/A _1518_/C vdd gnd NAND2X1
X_1379_ _1379_/A _1379_/B _1379_/C _1382_/C vdd gnd OAI21X1
X_961_ _986_/B _982_/A _986_/S _962_/A vdd gnd MUX2X1
X_892_ _892_/A _893_/B vdd gnd INVX1
X_1233_ _1754_/Q _1565_/B vdd gnd INVX1
X_1302_ _1511_/A _1372_/A _1302_/C _1304_/B vdd gnd OAI21X1
X_1095_ _1100_/B _1095_/B _1097_/B vdd gnd NAND2X1
X_1164_ _1164_/A _1164_/B _937_/B _1182_/A vdd gnd AOI21X1
XBUFX2_insert3 Stg[0] _985_/S vdd gnd BUFX2
X_944_ _944_/A _981_/B _995_/B vdd gnd NAND2X1
X_875_ _875_/A _876_/B vdd gnd INVX1
X_1782_ _1782_/D _1782_/CLK _1782_/Q vdd gnd DFFPOSX1
X_1216_ _1230_/C _1230_/B _1218_/B vdd gnd AND2X2
X_1078_ _1101_/A _1101_/C _1113_/B vdd gnd NAND2X1
X_1147_ _1149_/C _1186_/A vdd gnd INVX1
X_927_ _927_/A _927_/Y vdd gnd INVX8
X_1001_ _1026_/A _999_/Y _1001_/C _1060_/A vdd gnd OAI21X1
X_1765_ _1765_/D _1798_/CLK _983_/B vdd gnd DFFPOSX1
X_1696_ _1696_/A _1696_/B _1718_/B vdd gnd NAND2X1
X_1481_ Ain[0] _1484_/B _1482_/C vdd gnd NAND2X1
X_1550_ _985_/S _1757_/Q _1550_/C _1552_/B vdd gnd OAI21X1
X_1748_ _1748_/D _1788_/CLK _867_/A vdd gnd DFFPOSX1
X_1679_ _1679_/A _1679_/B _1680_/C vdd gnd NOR2X1
X_1602_ _1602_/A _1602_/B _1726_/C _1603_/C vdd gnd OAI21X1
X_1395_ _1395_/A _1399_/C _1400_/B vdd gnd NAND2X1
X_1464_ _905_/A Yin[0] _1465_/C vdd gnd NAND2X1
X_1533_ _954_/B _1533_/B _1691_/B _1536_/A vdd gnd OAI21X1
X_1180_ _921_/C _1369_/B _1180_/C _1180_/D _1737_/D vdd gnd AOI22X1
X_1516_ _1516_/A _972_/B _1518_/B vdd gnd NAND2X1
X_1378_ _1400_/A _1391_/B vdd gnd INVX1
X_1447_ _1768_/Q _1664_/C vdd gnd INVX1
X_891_ _891_/A _893_/C vdd gnd INVX1
X_960_ _985_/B _986_/A _985_/S _962_/B vdd gnd MUX2X1
X_1232_ _1232_/A _1232_/B _1754_/Q _1257_/A vdd gnd OAI21X1
X_1301_ _1644_/A _954_/B _989_/A _1372_/A vdd gnd OAI21X1
X_1094_ _968_/B _1094_/B _1094_/C _1100_/B vdd gnd NAND3X1
X_1163_ _912_/C _1496_/A _1163_/C _1736_/D vdd gnd OAI21X1
XBUFX2_insert4 Stg[0] _1026_/A vdd gnd BUFX2
X_874_ _874_/A _924_/A vdd gnd INVX2
X_943_ _944_/A _981_/B _950_/A vdd gnd NOR2X1
X_1781_ _1781_/D _1797_/CLK _1781_/Q vdd gnd DFFPOSX1
X_1146_ _1632_/B _1224_/B _1146_/C _1149_/C vdd gnd OAI21X1
X_1215_ _1757_/Q _1541_/B vdd gnd INVX1
X_1077_ _1100_/A _1097_/A vdd gnd INVX1
X_926_ _994_/A _944_/A vdd gnd INVX1
X_1000_ _1026_/A _1775_/Q _1001_/C vdd gnd NAND2X1
X_1764_ _1764_/D _1798_/CLK _958_/B vdd gnd DFFPOSX1
X_1695_ _1700_/B _1700_/A _1699_/B vdd gnd OR2X2
X_1129_ _1515_/A _1129_/B _1129_/C _1142_/B vdd gnd OAI21X1
X_1480_ _1490_/A _1480_/B _1480_/C _1783_/D vdd gnd AOI21X1
X_909_ _918_/A _909_/B _909_/C _913_/B vdd gnd OAI21X1
X_1678_ _1678_/A _1696_/B _1696_/A _1703_/A vdd gnd OAI21X1
X_1747_ _1747_/D _1797_/CLK _883_/B vdd gnd DFFPOSX1
X_1532_ _1532_/A _1532_/B _996_/C _1534_/B vdd gnd AOI21X1
X_1601_ _1644_/A _1644_/B _1601_/C _1602_/B vdd gnd OAI21X1
X_1394_ _1781_/Q _1405_/B _1399_/C vdd gnd NAND2X1
X_1463_ _1463_/A _923_/C _1463_/C _1775_/D vdd gnd OAI21X1
X_1515_ _1515_/A _1515_/B _1515_/C _1522_/B vdd gnd NAND3X1
X_1377_ _1377_/A _1399_/B _1400_/A vdd gnd NAND2X1
X_1446_ _1446_/A _1471_/B _1446_/C _1767_/D vdd gnd OAI21X1
X_890_ _918_/A _890_/B _890_/C _894_/B vdd gnd OAI21X1
X_1162_ _1496_/A _1162_/B _1163_/C vdd gnd NAND2X1
X_1231_ _1253_/B _1254_/B _1232_/A vdd gnd NOR2X1
X_1300_ _1371_/A _1300_/B _1302_/C vdd gnd NAND2X1
X_1093_ _1100_/C _1095_/B vdd gnd INVX1
XBUFX2_insert5 Stg[0] _982_/S vdd gnd BUFX2
X_1429_ _975_/B _1480_/B _1429_/C _1759_/D vdd gnd OAI21X1
X_873_ _876_/A _875_/A _874_/A vdd gnd NOR2X1
X_942_ _942_/A _942_/B _942_/S _981_/B vdd gnd MUX2X1
X_1780_ _1780_/D _1797_/CLK _1780_/Q vdd gnd DFFPOSX1
X_1145_ _947_/A _1145_/B _1146_/C vdd gnd NAND2X1
X_1214_ _1757_/Q _1214_/B _1214_/C _1239_/A vdd gnd NAND3X1
X_1076_ _1076_/A _1076_/B _1076_/C _1100_/A vdd gnd OAI21X1
X_925_ _925_/A _951_/A vdd gnd INVX1
XCLKBUF1_insert12 clk _1794_/CLK vdd gnd CLKBUF1
X_1694_ _1694_/A _1694_/B _1718_/C _1700_/B vdd gnd OAI21X1
X_1763_ _1763_/D _1782_/CLK _982_/B vdd gnd DFFPOSX1
X_1059_ _948_/B _1371_/B vdd gnd INVX1
X_1128_ _1209_/B _1209_/A _1515_/A _1129_/C vdd gnd OAI21X1
X_908_ _918_/A _908_/B _909_/C vdd gnd NAND2X1
X_1815_ _906_/Y Yout[1] vdd gnd BUFX2
X_1677_ _1694_/A _1696_/A vdd gnd INVX1
X_1746_ _1746_/D _1797_/CLK _868_/B vdd gnd DFFPOSX1
X_1462_ Yin[1] _923_/C _1463_/C vdd gnd NAND2X1
X_1531_ _1537_/A _1531_/B _1537_/B _1532_/B vdd gnd OAI21X1
X_1600_ _1625_/A _1600_/B _1600_/C _1601_/C vdd gnd NAND3X1
X_1393_ _1404_/A _1475_/A _1395_/A vdd gnd NAND2X1
X_1729_ _997_/Y _1798_/CLK _953_/A vdd gnd DFFPOSX1
X_1445_ Yin[1] _1471_/B _1446_/C vdd gnd NAND2X1
X_1514_ _927_/A _941_/B _1515_/C vdd gnd NAND2X1
X_1376_ _1473_/A _1376_/B _1377_/A vdd gnd NAND2X1
X_1092_ _1094_/C _1094_/B _968_/B _1100_/C vdd gnd AOI21X1
X_1161_ _1161_/A _1165_/B _956_/A _1162_/B vdd gnd OAI21X1
X_1230_ _1253_/A _1230_/B _1230_/C _1254_/B vdd gnd OAI21X1
XBUFX2_insert6 Stg[0] _1053_/A vdd gnd BUFX2
X_1428_ Xin[1] _1480_/B _1429_/C vdd gnd NAND2X1
X_1359_ _1644_/A _983_/S _989_/A _1360_/A vdd gnd OAI21X1
X_941_ _941_/A _941_/B _979_/S _942_/A vdd gnd MUX2X1
X_872_ _872_/A _922_/A _872_/C _878_/B vdd gnd AOI21X1
X_1213_ _1230_/C _1230_/B _1214_/C vdd gnd OR2X2
X_1075_ _923_/D _1412_/A _1099_/C vdd gnd NAND2X1
X_1144_ _1605_/A _1144_/B _1209_/B _1224_/B vdd gnd AOI21X1
X_924_ _924_/A _924_/B _924_/C _924_/Y vdd gnd OAI21X1
XCLKBUF1_insert13 clk _1785_/CLK vdd gnd CLKBUF1
X_1693_ _1718_/A _1700_/A vdd gnd INVX1
X_1762_ _1762_/D _1782_/CLK _983_/A vdd gnd DFFPOSX1
X_1058_ _1058_/A _1084_/B _1061_/A vdd gnd NAND2X1
X_1127_ _1605_/A _1446_/A _1209_/B vdd gnd NOR2X1
X_907_ _907_/A _909_/B vdd gnd INVX1
X_1745_ _1745_/D _1788_/CLK _886_/D vdd gnd DFFPOSX1
X_1814_ _896_/Y Yout[0] vdd gnd BUFX2
X_1676_ _946_/A _1676_/B _1692_/C _1694_/A vdd gnd OAI21X1
X_1392_ _1781_/Q _1475_/A vdd gnd INVX1
X_1461_ _999_/Y _923_/C _1461_/C _1774_/D vdd gnd OAI21X1
X_1530_ _1530_/A _1532_/A vdd gnd INVX1
X_1728_ _951_/Y _1798_/CLK _925_/A vdd gnd DFFPOSX1
X_1659_ _946_/A _1659_/B _1692_/C _1684_/A vdd gnd OAI21X1
X_1375_ _1780_/Q _1473_/A vdd gnd INVX1
X_1444_ _1699_/A _1471_/B _1444_/C _1766_/D vdd gnd OAI21X1
X_1513_ _984_/S _1513_/B _1513_/C _1515_/B vdd gnd NAND3X1
X_1091_ _965_/A _1091_/B _1113_/A _1094_/C vdd gnd OAI21X1
X_1160_ _1184_/A _1184_/B _1161_/A vdd gnd NOR2X1
XBUFX2_insert7 _952_/Y _1412_/A vdd gnd BUFX2
X_1358_ _955_/A _1511_/A _1371_/A _1533_/B vdd gnd NAND3X1
X_1427_ _937_/B _1480_/B _1427_/C _1758_/D vdd gnd OAI21X1
X_1289_ _1289_/A _1786_/Q _1290_/B vdd gnd OR2X2
X_871_ _871_/A _921_/D _871_/C _872_/C vdd gnd OAI21X1
X_940_ _986_/S _940_/B _940_/C _941_/A vdd gnd OAI21X1
X_1212_ _1230_/B _1230_/C _1214_/B vdd gnd NAND2X1
X_1074_ _1074_/A _1074_/B _1074_/C _1732_/D vdd gnd OAI21X1
X_1143_ _1186_/C _1148_/C vdd gnd INVX1
X_923_ _923_/A _923_/B _923_/C _923_/D _924_/C vdd gnd AOI22X1
X_1761_ _1761_/D _1785_/CLK _986_/B vdd gnd DFFPOSX1
XCLKBUF1_insert14 clk _1798_/CLK vdd gnd CLKBUF1
X_1692_ _946_/A _1692_/B _1692_/C _1718_/A vdd gnd OAI21X1
X_1126_ _1767_/Q _1446_/A vdd gnd INVX1
X_1057_ _1544_/D _1084_/B vdd gnd INVX1
X_906_ _924_/A _906_/B _906_/C _906_/Y vdd gnd OAI21X1
X_1744_ _1744_/D _1788_/CLK _877_/D vdd gnd DFFPOSX1
X_1813_ _924_/Y Xout[1] vdd gnd BUFX2
X_1675_ _1684_/A _1684_/B _1696_/B vdd gnd NOR2X1
X_1109_ _1471_/A _1111_/C _1142_/C _1115_/B vdd gnd NAND3X1
X_1391_ _1402_/A _1391_/B _1391_/C _1397_/B vdd gnd AOI21X1
X_1460_ Yin[0] _923_/C _1461_/C vdd gnd NAND2X1
X_1658_ _1658_/A _1692_/C vdd gnd INVX1
X_1727_ _1727_/A _1727_/B _1807_/D vdd gnd NAND2X1
X_1589_ _1607_/A _1676_/B _1589_/C _1609_/B vdd gnd OAI21X1
X_1512_ _986_/S _978_/B _1513_/B vdd gnd NAND2X1
X_1374_ _1780_/Q _1374_/B _1399_/B vdd gnd NAND2X1
X_1443_ Yin[0] _1471_/B _1444_/C vdd gnd NAND2X1
X_1090_ _1101_/B _1113_/A vdd gnd INVX1
XBUFX2_insert8 _952_/Y _1369_/B vdd gnd BUFX2
X_1288_ _1786_/Q _1289_/A _1296_/A vdd gnd NAND2X1
X_1357_ _1380_/A _1357_/B _1379_/B _1368_/A vdd gnd OAI21X1
X_1426_ Xin[0] _1480_/B _1427_/C vdd gnd NAND2X1
X_870_ _870_/A _921_/A _921_/D vdd gnd NAND2X1
X_999_ _999_/A _999_/Y vdd gnd INVX1
X_1142_ _1142_/A _1142_/B _1142_/C _1186_/C vdd gnd NOR3X1
X_1211_ _1225_/B _1225_/A _1227_/C _1230_/C vdd gnd OAI21X1
X_1073_ _1076_/A _1073_/B _950_/C _1074_/B vdd gnd OAI21X1
X_1409_ _865_/B _1811_/A _1409_/C _1409_/D _1752_/D vdd gnd OAI22X1
X_922_ _922_/A _922_/B _922_/C _924_/B vdd gnd AOI21X1
XCLKBUF1_insert15 clk _1790_/CLK vdd gnd CLKBUF1
X_1691_ _900_/B _1691_/B _1691_/C _1805_/D vdd gnd OAI21X1
X_1760_ _1760_/D _1782_/CLK _982_/A vdd gnd DFFPOSX1
X_1125_ _927_/A _1125_/B _1209_/A vdd gnd NOR2X1
X_1056_ _1516_/A _947_/A _1544_/D vdd gnd NAND2X1
X_905_ _905_/A _953_/A _923_/C _905_/D _906_/C vdd gnd AOI22X1
X_1674_ _1704_/A _1674_/B _1689_/B vdd gnd NOR2X1
X_1743_ _1743_/D _1788_/CLK _886_/B vdd gnd DFFPOSX1
X_1812_ _915_/Y Xout[0] vdd gnd BUFX2
X_1039_ _1041_/C _1041_/B _971_/B _1049_/C vdd gnd AOI21X1
X_1108_ _1142_/A _1111_/C vdd gnd INVX1
X_1390_ _1399_/B _1391_/C vdd gnd INVX1
X_1588_ _1607_/A _988_/A _1589_/C vdd gnd NAND2X1
X_1657_ _1657_/A _1659_/B vdd gnd INVX1
X_1726_ _1726_/A _1726_/B _1726_/C _1727_/B vdd gnd OAI21X1
X_1442_ _1791_/D _971_/B _1442_/C _1765_/D vdd gnd OAI21X1
X_1511_ _1511_/A _940_/B _1513_/C vdd gnd NAND2X1
X_1373_ _1376_/B _1374_/B vdd gnd INVX1
X_1709_ _1709_/A _1709_/B _1709_/C _1710_/A vdd gnd NOR3X1
XBUFX2_insert9 _952_/Y _953_/B vdd gnd BUFX2
X_1425_ _921_/D _924_/A _1480_/B vdd gnd NOR2X1
X_1287_ _1644_/A _1287_/B _1287_/C _1289_/A vdd gnd OAI21X1
X_1356_ _871_/A _952_/A _1356_/C _1356_/D _1748_/D vdd gnd OAI22X1
X_998_ _998_/A _998_/B _998_/Y vdd gnd NAND2X1
X_1072_ _1072_/A _1073_/B vdd gnd INVX1
X_1141_ _921_/B _948_/C _1141_/C _1141_/D _1735_/D vdd gnd OAI22X1
X_1210_ _1210_/A _1632_/B _1210_/C _1230_/B vdd gnd AOI21X1
X_1408_ _1411_/A _1411_/B _1811_/A _1409_/C vdd gnd OAI21X1
X_1339_ _1340_/A _1340_/B _1342_/A vdd gnd NOR2X1
X_921_ _921_/A _921_/B _921_/C _921_/D _922_/C vdd gnd OAI22X1
XCLKBUF1_insert16 clk _1797_/CLK vdd gnd CLKBUF1
X_1690_ _1690_/A _1690_/B _1726_/C _1691_/C vdd gnd OAI21X1
X_1055_ _987_/S _1105_/B _1055_/C _1145_/B vdd gnd OAI21X1
X_1124_ _1166_/C _1134_/C vdd gnd INVX1
X_904_ _922_/A _904_/B _904_/C _906_/B vdd gnd AOI21X1
X_1811_ _1811_/A Vld vdd gnd BUFX2
X_1673_ _1673_/A _1704_/A vdd gnd INVX1
X_1742_ _1742_/D _1788_/CLK _877_/B vdd gnd DFFPOSX1
X_1038_ _1371_/A _1038_/B _1063_/B _1041_/B vdd gnd NAND3X1
X_1107_ _1515_/A _1107_/B _1107_/C _1142_/A vdd gnd OAI21X1
X_1725_ _1725_/A _1725_/B _956_/A _1726_/B vdd gnd OAI21X1
X_1587_ _1605_/A _1587_/B _1605_/C _1676_/B vdd gnd AOI21X1
X_1656_ _1656_/A _1680_/A _1656_/C _1684_/B vdd gnd NAND3X1
X_1441_ _1791_/D Xin[1] _1442_/C vdd gnd NAND2X1
X_1510_ _947_/A _1510_/B _1510_/C _1522_/A vdd gnd NAND3X1
X_1372_ _1372_/A _1372_/B _1376_/B vdd gnd NAND2X1
X_1708_ _1708_/A _1709_/B _1708_/C _1710_/C vdd gnd OAI21X1
X_1639_ _1680_/A _1639_/B _1650_/C vdd gnd NAND2X1
X_1355_ _1380_/A _1357_/B _952_/A _1356_/C vdd gnd OAI21X1
X_1424_ _1541_/B _1475_/B _1424_/C _1757_/D vdd gnd OAI21X1
X_1286_ _1644_/A _1644_/B _1287_/B _1287_/C vdd gnd NAND3X1
XBUFX2_insert50 _1779_/Q _1678_/A vdd gnd BUFX2
X_997_ _998_/B _997_/B _997_/C _997_/Y vdd gnd OAI21X1
X_1071_ _1071_/A _1072_/A _1074_/A vdd gnd NOR2X1
X_1140_ _1140_/A _1140_/B _950_/C _1141_/C vdd gnd OAI21X1
X_1338_ _1344_/B _1340_/A vdd gnd INVX1
X_1407_ _1411_/B _1411_/A _1409_/D vdd gnd AND2X2
X_1269_ _886_/B _1311_/A _1281_/C vdd gnd NAND2X1
X_920_ _920_/A _921_/B vdd gnd INVX1
XCLKBUF1_insert17 clk _1782_/CLK vdd gnd CLKBUF1
X_1054_ _987_/S _1054_/B _1055_/C vdd gnd NAND2X1
X_1123_ _1142_/A _1142_/C _1166_/C vdd gnd NOR2X1
X_903_ _921_/A _903_/B _903_/C _921_/D _904_/C vdd gnd OAI22X1
X_1741_ _1741_/D _1785_/CLK _916_/A vdd gnd DFFPOSX1
X_1810_ _1810_/A ISout vdd gnd BUFX2
X_1672_ _1672_/A _953_/B _1672_/C _1672_/D _1804_/D vdd gnd AOI22X1
X_1106_ _1515_/A _1187_/A _1107_/C vdd gnd NAND2X1
X_1037_ _1065_/C _1038_/B vdd gnd INVX1
X_1724_ _1724_/A _1724_/B _1724_/C _1725_/B vdd gnd AOI21X1
X_1586_ _1605_/A _1631_/B _1605_/C vdd gnd NOR2X1
X_1655_ _1655_/A _1655_/B _1655_/C _1705_/C vdd gnd OAI21X1
X_1371_ _1371_/A _1371_/B _1372_/B vdd gnd NAND2X1
X_1440_ _1791_/D _933_/B _1440_/C _1764_/D vdd gnd OAI21X1
X_1638_ _1665_/C _1665_/A _1665_/B _1650_/B vdd gnd NAND3X1
X_1707_ _1707_/A _1717_/A _1724_/B vdd gnd AND2X2
X_1569_ _946_/A _942_/A _1569_/C _1609_/A vdd gnd OAI21X1
X_1285_ _1511_/A _934_/S _989_/A _1287_/B vdd gnd OAI21X1
X_1354_ _1357_/B _1380_/A _1356_/D vdd gnd AND2X2
X_1423_ Xin[1] _1475_/B _1424_/C vdd gnd NAND2X1
XBUFX2_insert40 Stg[1] _1516_/A vdd gnd BUFX2
XBUFX2_insert51 _1779_/Q _965_/A vdd gnd BUFX2
X_996_ _996_/A _996_/B _996_/C _997_/B vdd gnd AOI21X1
X_1070_ _1076_/B _1070_/B _1072_/A vdd gnd NOR2X1
X_1268_ _1311_/A _1268_/B _1268_/C _1742_/D vdd gnd OAI21X1
X_1337_ _1337_/A _1344_/C _1344_/B vdd gnd NAND2X1
X_1406_ _1406_/A _1411_/C _1411_/A vdd gnd NAND2X1
X_1199_ _1238_/A _1199_/B _1239_/C vdd gnd AND2X2
XCLKBUF1_insert18 clk _1807_/CLK vdd gnd CLKBUF1
X_979_ _979_/A _979_/B _979_/S _980_/A vdd gnd MUX2X1
X_1122_ _1122_/A _1158_/A _1155_/A _1140_/B vdd gnd OAI21X1
X_1053_ _1053_/A _1768_/Q _1053_/C _1105_/B vdd gnd OAI21X1
X_902_ _902_/A _903_/B vdd gnd INVX1
X_1671_ _1674_/B _1671_/B _1672_/C vdd gnd OR2X2
X_1740_ _1740_/D _1785_/CLK _907_/A vdd gnd DFFPOSX1
X_1105_ _1567_/A _1105_/B _1105_/C _1187_/A vdd gnd OAI21X1
X_1036_ _1404_/A _1036_/B _1065_/C _1041_/C vdd gnd OAI21X1
X_1654_ _1654_/A _1708_/C _1654_/C _1655_/A vdd gnd NAND3X1
X_1723_ _1724_/C _1723_/B _1723_/C _1726_/A vdd gnd NOR3X1
X_1585_ _1618_/B _1600_/C vdd gnd INVX1
X_1019_ _1019_/A _1019_/B _998_/Y _1730_/D vdd gnd OAI21X1
X_1370_ _864_/B _1412_/A _1388_/C vdd gnd NAND2X1