* NGSPICE file created from cordic_element.ext - technology: scmos

* Black-box entry subcircuit for FILL abstract view
.subckt FILL vdd gnd
.ends

* Black-box entry subcircuit for INVX2 abstract view
.subckt INVX2 A Y vdd gnd
.ends

* Black-box entry subcircuit for NAND2X1 abstract view
.subckt NAND2X1 A B Y vdd gnd
.ends

* Black-box entry subcircuit for OAI21X1 abstract view
.subckt OAI21X1 A B C Y vdd gnd
.ends

* Black-box entry subcircuit for NAND3X1 abstract view
.subckt NAND3X1 A B C Y vdd gnd
.ends

* Black-box entry subcircuit for NOR2X1 abstract view
.subckt NOR2X1 A B Y vdd gnd
.ends

* Black-box entry subcircuit for INVX1 abstract view
.subckt INVX1 A Y vdd gnd
.ends

* Black-box entry subcircuit for AOI22X1 abstract view
.subckt AOI22X1 A B C D Y vdd gnd
.ends

* Black-box entry subcircuit for AOI21X1 abstract view
.subckt AOI21X1 A B C Y vdd gnd
.ends

* Black-box entry subcircuit for BUFX2 abstract view
.subckt BUFX2 A Y vdd gnd
.ends

* Black-box entry subcircuit for DFFPOSX1 abstract view
.subckt DFFPOSX1 D CLK Q vdd gnd
.ends

* Black-box entry subcircuit for MUX2X1 abstract view
.subckt MUX2X1 A B S Y vdd gnd
.ends

* Black-box entry subcircuit for AND2X2 abstract view
.subckt AND2X2 A B Y vdd gnd
.ends

* Black-box entry subcircuit for INVX4 abstract view
.subckt INVX4 A Y vdd gnd
.ends

* Black-box entry subcircuit for OAI22X1 abstract view
.subckt OAI22X1 A B C D Y vdd gnd
.ends

* Black-box entry subcircuit for OR2X2 abstract view
.subckt OR2X2 A B Y vdd gnd
.ends

* Black-box entry subcircuit for INVX8 abstract view
.subckt INVX8 A Y vdd gnd
.ends

* Black-box entry subcircuit for CLKBUF1 abstract view
.subckt CLKBUF1 A Y vdd gnd
.ends

* Black-box entry subcircuit for NOR3X1 abstract view
.subckt NOR3X1 A B C Y vdd gnd
.ends

.subckt cordic_element gnd vdd Ain[1] Ain[0] Aout[1] Aout[0] ISin ISout Rdy Stg[2]
+ Stg[1] Stg[0] Vld Xin[1] Xin[0] Xout[1] Xout[0] Yin[1] Yin[0] Yout[1] Yout[0] clk
XFILL_1__1670_ vdd gnd FILL
XFILL_1__1104_ vdd gnd FILL
XFILL_1__1035_ vdd gnd FILL
XFILL_0_CLKBUF1_insert19 vdd gnd FILL
XFILL_2__1213_ vdd gnd FILL
XFILL_2__1144_ vdd gnd FILL
X_1270_ _986_/S _1511_/A vdd gnd INVX2
XFILL_0__1613_ vdd gnd FILL
XFILL_0__1544_ vdd gnd FILL
XFILL_0__1475_ vdd gnd FILL
X_1606_ _1607_/A _1606_/B _1607_/C vdd gnd NAND2X1
X_1399_ _1400_/B _1399_/B _1399_/C _1402_/C vdd gnd OAI21X1
X_1468_ Ain[0] _1471_/B _1469_/C vdd gnd NAND2X1
XFILL_1__1653_ vdd gnd FILL
XFILL_1__1722_ vdd gnd FILL
X_1537_ _1537_/A _1537_/B _1537_/C _1579_/C vdd gnd OAI21X1
XFILL_1__1584_ vdd gnd FILL
XFILL_1__1018_ vdd gnd FILL
X_981_ _981_/A _981_/B _981_/C _992_/B vdd gnd NAND3X1
XFILL_0__1260_ vdd gnd FILL
XFILL_0__1191_ vdd gnd FILL
XFILL_2__1127_ vdd gnd FILL
X_1322_ _1322_/A _1344_/A _1343_/A vdd gnd NAND2X1
X_1253_ _1253_/A _1253_/B _1254_/A vdd gnd NOR2X1
XFILL_1__993_ vdd gnd FILL
X_1184_ _1184_/A _1184_/B _1184_/C _1240_/B vdd gnd NAND3X1
XFILL_0__1527_ vdd gnd FILL
XFILL_0__1389_ vdd gnd FILL
XFILL_0__1458_ vdd gnd FILL
XFILL_1__1705_ vdd gnd FILL
XFILL_1__1636_ vdd gnd FILL
XFILL_1__1567_ vdd gnd FILL
XFILL_1__1498_ vdd gnd FILL
XFILL_2__958_ vdd gnd FILL
X_964_ _964_/A _992_/A vdd gnd INVX1
X_895_ _905_/A _925_/A _923_/C _895_/D _896_/C vdd gnd AOI22X1
XFILL_0__1243_ vdd gnd FILL
XFILL_0__1312_ vdd gnd FILL
XFILL_0__1174_ vdd gnd FILL
XFILL_1__976_ vdd gnd FILL
X_1305_ _1308_/B _1320_/A vdd gnd INVX1
X_1236_ _1252_/B _1236_/B _1565_/B _1237_/B vdd gnd OAI21X1
X_1098_ _1098_/A _1098_/B _996_/C _1099_/B vdd gnd AOI21X1
XFILL_1__1352_ vdd gnd FILL
XFILL_1__1283_ vdd gnd FILL
XFILL_1__1421_ vdd gnd FILL
X_1167_ _1632_/B _1446_/A _1210_/C vdd gnd NOR2X1
XBUFX2_insert0 Stg[0] _983_/S vdd gnd BUFX2
XFILL_1__1619_ vdd gnd FILL
XFILL_2__1461_ vdd gnd FILL
XFILL_2__1530_ vdd gnd FILL
XFILL_0__994_ vdd gnd FILL
X_878_ _924_/A _878_/B _878_/C _878_/Y vdd gnd OAI21X1
X_947_ _947_/A _984_/S _948_/B vdd gnd NAND2X1
X_1021_ _933_/B _1036_/B _1049_/A vdd gnd NOR2X1
X_1785_ _1785_/D _1785_/CLK _1785_/Q vdd gnd DFFPOSX1
XFILL_0__1157_ vdd gnd FILL
XFILL_0__1226_ vdd gnd FILL
XFILL_0__1088_ vdd gnd FILL
XFILL_1__1404_ vdd gnd FILL
X_1219_ _1239_/B _1239_/A _1238_/B vdd gnd NAND2X1
XFILL_1__959_ vdd gnd FILL
XFILL_1__1335_ vdd gnd FILL
XFILL_1__1266_ vdd gnd FILL
XFILL_1__1197_ vdd gnd FILL
XFILL88650x10950 vdd gnd FILL
XFILL_2__1375_ vdd gnd FILL
XFILL_2__1444_ vdd gnd FILL
XFILL_0__977_ vdd gnd FILL
XFILL_0__1011_ vdd gnd FILL
X_1570_ _981_/A _1609_/A _1609_/C _1575_/A vdd gnd NAND3X1
XFILL_1__1120_ vdd gnd FILL
X_1004_ _1004_/A _1060_/A _934_/S _1005_/B vdd gnd MUX2X1
XFILL_1__1051_ vdd gnd FILL
X_1768_ _1768_/D _1790_/CLK _1768_/Q vdd gnd DFFPOSX1
XFILL_0__1209_ vdd gnd FILL
X_1699_ _1699_/A _1699_/B _1699_/C _1707_/A vdd gnd NAND3X1
XFILL_2__1160_ vdd gnd FILL
XFILL_1__1318_ vdd gnd FILL
XFILL_2__1091_ vdd gnd FILL
XFILL_0__900_ vdd gnd FILL
XFILL_1__1249_ vdd gnd FILL
XFILL88350x57750 vdd gnd FILL
XFILL_0__1560_ vdd gnd FILL
XFILL_0__1491_ vdd gnd FILL
XFILL_2__1358_ vdd gnd FILL
XFILL_2__1427_ vdd gnd FILL
X_1622_ _1708_/A _1651_/A vdd gnd INVX1
X_1484_ _1484_/A _1484_/B _1484_/C _1785_/D vdd gnd OAI21X1
XFILL_2_BUFX2_insert58 vdd gnd FILL
XFILL_2_BUFX2_insert36 vdd gnd FILL
XFILL_2_BUFX2_insert25 vdd gnd FILL
X_1553_ _1632_/A _946_/A _1553_/C _1563_/B vdd gnd AOI21X1
XFILL_2_BUFX2_insert47 vdd gnd FILL
XFILL_0__1689_ vdd gnd FILL
XFILL_1__1103_ vdd gnd FILL
XFILL_1__1034_ vdd gnd FILL
XFILL_2__991_ vdd gnd FILL
XFILL_1_BUFX2_insert0 vdd gnd FILL
XFILL_2__1074_ vdd gnd FILL
XFILL_0__1612_ vdd gnd FILL
XFILL_0__1543_ vdd gnd FILL
XFILL_0__1474_ vdd gnd FILL
X_1605_ _1605_/A _1605_/B _1605_/C _1692_/B vdd gnd AOI21X1
X_1536_ _1536_/A _1726_/C vdd gnd INVX2
X_1398_ _1398_/A _1398_/B _1398_/C _1751_/D vdd gnd OAI21X1
XFILL_1__1721_ vdd gnd FILL
XFILL_1__1652_ vdd gnd FILL
XFILL_1__1583_ vdd gnd FILL
X_1467_ _905_/A _992_/A _1467_/C _1777_/D vdd gnd OAI21X1
XFILL_1__1017_ vdd gnd FILL
XFILL_2__974_ vdd gnd FILL
XFILL_2__1692_ vdd gnd FILL
X_980_ _980_/A _980_/B _988_/S _981_/C vdd gnd MUX2X1
XFILL_0__1190_ vdd gnd FILL
XFILL88050x79350 vdd gnd FILL
XFILL_2__1057_ vdd gnd FILL
X_1321_ _1344_/A _1322_/A _1345_/A _1325_/A vdd gnd AOI21X1
X_1252_ _1253_/A _1252_/B _1720_/B _1255_/B vdd gnd OAI21X1
XFILL_1__992_ vdd gnd FILL
X_1183_ _1183_/A _1183_/B _1240_/A vdd gnd AND2X2
XFILL_0__1457_ vdd gnd FILL
XFILL_0__1526_ vdd gnd FILL
XFILL_0__1388_ vdd gnd FILL
X_1519_ _979_/S _979_/A _1521_/B vdd gnd NAND2X1
XFILL_1__1635_ vdd gnd FILL
XFILL_1__1704_ vdd gnd FILL
XFILL_1__1566_ vdd gnd FILL
XFILL_1__1497_ vdd gnd FILL
XFILL_2__888_ vdd gnd FILL
XFILL_2__1813_ vdd gnd FILL
XFILL88050x54150 vdd gnd FILL
XFILL_2__1675_ vdd gnd FILL
X_894_ _922_/A _894_/B _894_/C _896_/B vdd gnd AOI21X1
X_963_ _963_/A _963_/B _988_/S _994_/B vdd gnd MUX2X1
XFILL_0__1311_ vdd gnd FILL
XFILL_0__1242_ vdd gnd FILL
XFILL_0__1173_ vdd gnd FILL
X_1166_ _1166_/A _1186_/A _1166_/C _1192_/B vdd gnd NAND3X1
X_1235_ _1253_/B _1235_/B _1236_/B vdd gnd NOR2X1
X_1304_ _1304_/A _1304_/B _1308_/B vdd gnd NAND2X1
XFILL_1__975_ vdd gnd FILL
XFILL_1__1420_ vdd gnd FILL
XBUFX2_insert1 Stg[0] _1565_/A vdd gnd BUFX2
X_1097_ _1097_/A _1097_/B _1098_/B vdd gnd NAND2X1
XFILL_1__1351_ vdd gnd FILL
XFILL_1__1282_ vdd gnd FILL
XFILL_0__1509_ vdd gnd FILL
XFILL_2__1391_ vdd gnd FILL
XFILL_1__1618_ vdd gnd FILL
XFILL_1__1549_ vdd gnd FILL
XFILL_0__993_ vdd gnd FILL
X_1020_ _923_/B _1311_/A _1047_/C vdd gnd NAND2X1
X_877_ _923_/A _877_/B _923_/C _877_/D _878_/C vdd gnd AOI22X1
XFILL88650x7350 vdd gnd FILL
XFILL_2__1658_ vdd gnd FILL
X_946_ _946_/A _946_/Y vdd gnd INVX4
XFILL_2__1589_ vdd gnd FILL
XFILL_0__1156_ vdd gnd FILL
X_1784_ _1784_/D _1785_/CLK _1784_/Q vdd gnd DFFPOSX1
XFILL_0__1225_ vdd gnd FILL
XFILL_0__1087_ vdd gnd FILL
XFILL_1__1403_ vdd gnd FILL
X_1149_ _1253_/A _1186_/C _1149_/C _1164_/B vdd gnd OAI21X1
X_1218_ _1218_/A _1218_/B _1541_/B _1239_/B vdd gnd OAI21X1
XFILL_1__889_ vdd gnd FILL
XFILL_1__958_ vdd gnd FILL
XFILL_1__1334_ vdd gnd FILL
XFILL_1__1265_ vdd gnd FILL
XFILL_1__1196_ vdd gnd FILL
XFILL_0__976_ vdd gnd FILL
XFILL_0__1010_ vdd gnd FILL
X_929_ _982_/S _982_/B _930_/C vdd gnd NAND2X1
X_1003_ _1026_/A _944_/A _1003_/C _1004_/A vdd gnd OAI21X1
XFILL_1__1050_ vdd gnd FILL
XFILL_0__1208_ vdd gnd FILL
XFILL_0__1139_ vdd gnd FILL
X_1698_ _1701_/A _1699_/C vdd gnd INVX1
X_1767_ _1767_/D _1790_/CLK _1767_/Q vdd gnd DFFPOSX1
XFILL_1__1317_ vdd gnd FILL
XFILL_1__1179_ vdd gnd FILL
XFILL_1__1248_ vdd gnd FILL
XFILL_0__1490_ vdd gnd FILL
XFILL_2__1288_ vdd gnd FILL
X_1621_ _893_/C _953_/B _1621_/C _1726_/C _1802_/D vdd gnd AOI22X1
X_1552_ _979_/S _1552_/B _1552_/C _1632_/A vdd gnd OAI21X1
XFILL_0__959_ vdd gnd FILL
X_1483_ Ain[1] _1484_/B _1484_/C vdd gnd NAND2X1
XFILL_0__1688_ vdd gnd FILL
XFILL_1__1033_ vdd gnd FILL
XFILL_1__1102_ vdd gnd FILL
XFILL_1_BUFX2_insert1 vdd gnd FILL
XFILL_0__1473_ vdd gnd FILL
XFILL_0__1611_ vdd gnd FILL
XFILL_0__1542_ vdd gnd FILL
X_1535_ _905_/D _1562_/A vdd gnd INVX1
XFILL_1__1720_ vdd gnd FILL
X_1604_ _1604_/A _1604_/B _1604_/C _1679_/B vdd gnd NAND3X1
XFILL_0__1809_ vdd gnd FILL
X_1397_ _1400_/B _1397_/B _1811_/A _1398_/A vdd gnd OAI21X1
XFILL_1__1582_ vdd gnd FILL
XFILL_1__1651_ vdd gnd FILL
X_1466_ _905_/A Yin[1] _1467_/C vdd gnd NAND2X1
XFILL_1__1016_ vdd gnd FILL
X_1320_ _1320_/A _1320_/B _1320_/C _1345_/A vdd gnd OAI21X1
X_1182_ _1182_/A _1182_/B _1183_/A vdd gnd NAND2X1
X_1251_ _1254_/C _1720_/B vdd gnd INVX1
XFILL_1__991_ vdd gnd FILL
XFILL_0__1456_ vdd gnd FILL
XFILL_0__1525_ vdd gnd FILL
XFILL_0__1387_ vdd gnd FILL
XFILL_1__1703_ vdd gnd FILL
X_1449_ _1664_/C _1475_/B _1449_/C _1768_/D vdd gnd OAI21X1
X_1518_ _947_/A _1518_/B _1518_/C _1522_/C vdd gnd NAND3X1
XFILL_1__1496_ vdd gnd FILL
XFILL_1__1634_ vdd gnd FILL
XFILL_1__1565_ vdd gnd FILL
X_893_ _921_/A _893_/B _893_/C _921_/D _894_/C vdd gnd OAI22X1
X_962_ _962_/A _962_/B _979_/S _963_/A vdd gnd MUX2X1
XFILL_0__1241_ vdd gnd FILL
XFILL_0__1310_ vdd gnd FILL
XFILL_0__1172_ vdd gnd FILL
X_1303_ _1304_/A _1304_/B _1307_/A vdd gnd NOR2X1
XFILL_1__974_ vdd gnd FILL
X_1165_ _1182_/A _1165_/B _1179_/A vdd gnd NOR2X1
X_1096_ _1097_/B _1097_/A _1098_/A vdd gnd OR2X2
XFILL_1__1350_ vdd gnd FILL
X_1234_ _1234_/A _1254_/B _1252_/B vdd gnd NOR2X1
XBUFX2_insert2 Stg[0] _986_/S vdd gnd BUFX2
XFILL_1__1281_ vdd gnd FILL
XFILL_0__1508_ vdd gnd FILL
XFILL_0__1439_ vdd gnd FILL
XFILL_1_BUFX2_insert50 vdd gnd FILL
XFILL_1__1479_ vdd gnd FILL
XFILL_1__1617_ vdd gnd FILL
XFILL_1__1548_ vdd gnd FILL
XFILL_0__992_ vdd gnd FILL
X_945_ _995_/B _950_/B vdd gnd INVX1
X_876_ _876_/A _876_/B _923_/C vdd gnd NOR2X1
XFILL_0__1224_ vdd gnd FILL
XFILL_0__1155_ vdd gnd FILL
X_1783_ _1783_/D _1794_/CLK _1783_/Q vdd gnd DFFPOSX1
XFILL_0__1086_ vdd gnd FILL
XFILL_1__957_ vdd gnd FILL
XFILL_1__1402_ vdd gnd FILL
XFILL_1__1333_ vdd gnd FILL
X_1148_ _1471_/A _1186_/A _1148_/C _1164_/A vdd gnd NAND3X1
X_1217_ _1230_/B _1230_/C _1218_/A vdd gnd NOR2X1
X_1079_ _1766_/Q _1699_/A vdd gnd INVX1
XFILL_1__888_ vdd gnd FILL
XFILL_1__1264_ vdd gnd FILL
XFILL_1__1195_ vdd gnd FILL
XFILL_2__1511_ vdd gnd FILL
XFILL_0__975_ vdd gnd FILL
X_928_ _983_/A _930_/B vdd gnd INVX1
X_1002_ _1026_/A _964_/A _1003_/C vdd gnd NAND2X1
XFILL_0__1207_ vdd gnd FILL
XFILL_0__1138_ vdd gnd FILL
XFILL_0__1069_ vdd gnd FILL
X_1697_ _1718_/B _1718_/C _1718_/A _1701_/A vdd gnd AOI21X1
X_1766_ _1766_/D _1790_/CLK _1766_/Q vdd gnd DFFPOSX1
XFILL_1__1316_ vdd gnd FILL
XFILL_1__1178_ vdd gnd FILL
XFILL_1__1247_ vdd gnd FILL
XFILL_2__1425_ vdd gnd FILL
XFILL_0__958_ vdd gnd FILL
X_1482_ _1482_/A _1484_/B _1482_/C _1784_/D vdd gnd OAI21X1
X_1620_ _1709_/A _1655_/B _1620_/C _1621_/C vdd gnd OAI21X1
XFILL_0__889_ vdd gnd FILL
X_1551_ _979_/S _979_/B _1552_/C vdd gnd NAND2X1
XFILL_1__1101_ vdd gnd FILL
XFILL_0__1687_ vdd gnd FILL
XFILL_1__1032_ vdd gnd FILL
X_1749_ _1749_/D _1797_/CLK _882_/A vdd gnd DFFPOSX1
XFILL_1_BUFX2_insert2 vdd gnd FILL
XFILL_2__1210_ vdd gnd FILL
XFILL_2__1141_ vdd gnd FILL
XFILL88050x39750 vdd gnd FILL
XFILL88650x86550 vdd gnd FILL
XFILL_0__1610_ vdd gnd FILL
XFILL_2__1408_ vdd gnd FILL
XFILL_0__1472_ vdd gnd FILL
XFILL_0__1541_ vdd gnd FILL
X_1603_ _903_/B _1691_/B _1603_/C _1801_/D vdd gnd OAI21X1
X_1465_ _905_/A _944_/A _1465_/C _1776_/D vdd gnd OAI21X1
X_1534_ _1536_/A _1534_/B _1534_/C _1798_/D vdd gnd OAI21X1
XFILL_0__1808_ vdd gnd FILL
X_1396_ _1397_/B _1400_/B _1398_/B vdd gnd AND2X2
XFILL_1__1581_ vdd gnd FILL
XFILL_1__1650_ vdd gnd FILL
XFILL_2__972_ vdd gnd FILL
XFILL_1__1015_ vdd gnd FILL
XFILL88650x18150 vdd gnd FILL
XFILL88650x61350 vdd gnd FILL
XFILL_2__1124_ vdd gnd FILL
XFILL_2__1055_ vdd gnd FILL
XFILL_1__990_ vdd gnd FILL
X_1181_ _908_/B _1369_/B _1206_/C vdd gnd NAND2X1
XFILL_0__1524_ vdd gnd FILL
X_1250_ _1250_/A _1250_/B _1254_/C vdd gnd NAND2X1
XFILL_0__1386_ vdd gnd FILL
XFILL_0__1455_ vdd gnd FILL
XFILL_1__1633_ vdd gnd FILL
XFILL_1__1702_ vdd gnd FILL
X_1448_ Yin[0] _1475_/B _1449_/C vdd gnd NAND2X1
X_1517_ _984_/S _972_/A _1518_/C vdd gnd NAND2X1
XFILL_1__1495_ vdd gnd FILL
X_1379_ _1379_/A _1379_/B _1379_/C _1382_/C vdd gnd OAI21X1
XFILL_1__1564_ vdd gnd FILL
XFILL_2__955_ vdd gnd FILL
XFILL_2__1811_ vdd gnd FILL
X_961_ _986_/B _982_/A _986_/S _962_/A vdd gnd MUX2X1
X_892_ _892_/A _893_/B vdd gnd INVX1
XFILL_0__1240_ vdd gnd FILL
XFILL_0__1171_ vdd gnd FILL
XFILL_2__1038_ vdd gnd FILL
XFILL_2__1107_ vdd gnd FILL
XFILL_1__973_ vdd gnd FILL
X_1302_ _1511_/A _1372_/A _1302_/C _1304_/B vdd gnd OAI21X1
X_1233_ _1754_/Q _1565_/B vdd gnd INVX1
X_1164_ _1164_/A _1164_/B _937_/B _1182_/A vdd gnd AOI21X1
X_1095_ _1100_/B _1095_/B _1097_/B vdd gnd NAND2X1
XFILL_0__1507_ vdd gnd FILL
XBUFX2_insert3 Stg[0] _985_/S vdd gnd BUFX2
XFILL_1__1280_ vdd gnd FILL
XFILL_0__1369_ vdd gnd FILL
XFILL_0__1438_ vdd gnd FILL
XFILL_1_BUFX2_insert51 vdd gnd FILL
XFILL_1__1616_ vdd gnd FILL
XFILL_1_BUFX2_insert40 vdd gnd FILL
XFILL_1__1478_ vdd gnd FILL
XFILL_1__1547_ vdd gnd FILL
XFILL_0__991_ vdd gnd FILL
XFILL_2__869_ vdd gnd FILL
XFILL_2__938_ vdd gnd FILL
XFILL_2__1725_ vdd gnd FILL
X_944_ _944_/A _981_/B _995_/B vdd gnd NAND2X1
X_875_ _875_/A _876_/B vdd gnd INVX1
XFILL_0__1223_ vdd gnd FILL
XFILL_0__1154_ vdd gnd FILL
X_1782_ _1782_/D _1782_/CLK _1782_/Q vdd gnd DFFPOSX1
XFILL_0__1085_ vdd gnd FILL
XFILL_1__887_ vdd gnd FILL
X_1216_ _1230_/C _1230_/B _1218_/B vdd gnd AND2X2
XFILL_1__956_ vdd gnd FILL
XFILL_1__1401_ vdd gnd FILL
XFILL_1__1332_ vdd gnd FILL
X_1147_ _1149_/C _1186_/A vdd gnd INVX1
X_1078_ _1101_/A _1101_/C _1113_/B vdd gnd NAND2X1
XFILL_1__1263_ vdd gnd FILL
XFILL_1__1194_ vdd gnd FILL
XFILL_2__1372_ vdd gnd FILL
XFILL_2__1441_ vdd gnd FILL
XFILL_0__974_ vdd gnd FILL
XFILL_2__1708_ vdd gnd FILL
X_927_ _927_/A _927_/Y vdd gnd INVX8
XFILL_2__1639_ vdd gnd FILL
X_1001_ _1026_/A _999_/Y _1001_/C _1060_/A vdd gnd OAI21X1
XFILL_0__1206_ vdd gnd FILL
XFILL_0__1137_ vdd gnd FILL
X_1765_ _1765_/D _1798_/CLK _983_/B vdd gnd DFFPOSX1
XFILL_0__1068_ vdd gnd FILL
X_1696_ _1696_/A _1696_/B _1718_/B vdd gnd NAND2X1
XFILL_1__939_ vdd gnd FILL
XFILL_1__1246_ vdd gnd FILL
XFILL_1__1315_ vdd gnd FILL
XFILL_1__1177_ vdd gnd FILL
XFILL_2__1355_ vdd gnd FILL
XFILL_0__957_ vdd gnd FILL
XFILL_2_BUFX2_insert28 vdd gnd FILL
X_1481_ Ain[0] _1484_/B _1482_/C vdd gnd NAND2X1
XFILL_0__888_ vdd gnd FILL
XFILL_2_BUFX2_insert39 vdd gnd FILL
X_1550_ _985_/S _1757_/Q _1550_/C _1552_/B vdd gnd OAI21X1
XFILL_0__1686_ vdd gnd FILL
XFILL_1__1100_ vdd gnd FILL
X_1748_ _1748_/D _1788_/CLK _867_/A vdd gnd DFFPOSX1
XFILL_1__1031_ vdd gnd FILL
XFILL_1_BUFX2_insert3 vdd gnd FILL
X_1679_ _1679_/A _1679_/B _1680_/C vdd gnd NOR2X1
XFILL_2__1071_ vdd gnd FILL
XFILL_1__1229_ vdd gnd FILL
XFILL_0__1540_ vdd gnd FILL
XFILL_2__1338_ vdd gnd FILL
XFILL_2__1269_ vdd gnd FILL
XFILL_0__1471_ vdd gnd FILL
X_1602_ _1602_/A _1602_/B _1726_/C _1603_/C vdd gnd OAI21X1
X_1395_ _1395_/A _1399_/C _1400_/B vdd gnd NAND2X1
X_1464_ _905_/A Yin[0] _1465_/C vdd gnd NAND2X1
X_1533_ _954_/B _1533_/B _1691_/B _1536_/A vdd gnd OAI21X1
XFILL_1__1580_ vdd gnd FILL
XFILL_0__1669_ vdd gnd FILL
XFILL_1__1014_ vdd gnd FILL
X_1180_ _921_/C _1369_/B _1180_/C _1180_/D _1737_/D vdd gnd AOI22X1
XFILL_0__1523_ vdd gnd FILL
XFILL_0__1385_ vdd gnd FILL
XFILL_0__1454_ vdd gnd FILL
X_1516_ _1516_/A _972_/B _1518_/B vdd gnd NAND2X1
X_1378_ _1400_/A _1391_/B vdd gnd INVX1
XFILL_1__1701_ vdd gnd FILL
X_1447_ _1768_/Q _1664_/C vdd gnd INVX1
XFILL_1__1632_ vdd gnd FILL
XFILL_1__1494_ vdd gnd FILL
XFILL_1__1563_ vdd gnd FILL
XFILL_2__885_ vdd gnd FILL
X_960_ _985_/B _986_/A _985_/S _962_/B vdd gnd MUX2X1
X_891_ _891_/A _893_/C vdd gnd INVX1
XFILL_2__1672_ vdd gnd FILL
XFILL_0__1170_ vdd gnd FILL
X_1232_ _1232_/A _1232_/B _1754_/Q _1257_/A vdd gnd OAI21X1
X_1301_ _1644_/A _954_/B _989_/A _1372_/A vdd gnd OAI21X1
XFILL_1__972_ vdd gnd FILL
X_1163_ _912_/C _1496_/A _1163_/C _1736_/D vdd gnd OAI21X1
XFILL_0__1437_ vdd gnd FILL
X_1094_ _968_/B _1094_/B _1094_/C _1100_/B vdd gnd NAND3X1
XFILL_0__1506_ vdd gnd FILL
XBUFX2_insert4 Stg[0] _1026_/A vdd gnd BUFX2
XFILL_0__1368_ vdd gnd FILL
XFILL_0__1299_ vdd gnd FILL
XFILL_1__1615_ vdd gnd FILL
XFILL_1_BUFX2_insert52 vdd gnd FILL
XFILL_1__1546_ vdd gnd FILL
XFILL_1_BUFX2_insert30 vdd gnd FILL
XFILL_1_BUFX2_insert41 vdd gnd FILL
XFILL_1__1477_ vdd gnd FILL
XFILL_0__990_ vdd gnd FILL
X_874_ _874_/A _924_/A vdd gnd INVX2
XFILL_2__1655_ vdd gnd FILL
X_943_ _944_/A _981_/B _950_/A vdd gnd NOR2X1
XFILL_2__1586_ vdd gnd FILL
X_1781_ _1781_/D _1797_/CLK _1781_/Q vdd gnd DFFPOSX1
XFILL_0__1222_ vdd gnd FILL
XFILL_0__1153_ vdd gnd FILL
XFILL_0__1084_ vdd gnd FILL
XFILL87750x86550 vdd gnd FILL
XFILL_1__1400_ vdd gnd FILL
XFILL_1__886_ vdd gnd FILL
X_1215_ _1757_/Q _1541_/B vdd gnd INVX1
X_1146_ _1632_/B _1224_/B _1146_/C _1149_/C vdd gnd OAI21X1
XFILL_1__955_ vdd gnd FILL
XFILL_1__1193_ vdd gnd FILL
X_1077_ _1100_/A _1097_/A vdd gnd INVX1
XFILL_1__1331_ vdd gnd FILL
XFILL_1__1262_ vdd gnd FILL
XFILL_1__1529_ vdd gnd FILL
XFILL_0__973_ vdd gnd FILL
X_1000_ _1026_/A _1775_/Q _1001_/C vdd gnd NAND2X1
X_926_ _994_/A _944_/A vdd gnd INVX1
XFILL_2__1569_ vdd gnd FILL
XFILL_0__1205_ vdd gnd FILL
XFILL_0__1136_ vdd gnd FILL
XFILL87750x61350 vdd gnd FILL
XFILL_0__1067_ vdd gnd FILL
X_1764_ _1764_/D _1798_/CLK _958_/B vdd gnd DFFPOSX1
X_1695_ _1700_/B _1700_/A _1699_/B vdd gnd OR2X2
XFILL_1__869_ vdd gnd FILL
XFILL_1__938_ vdd gnd FILL
X_1129_ _1515_/A _1129_/B _1129_/C _1142_/B vdd gnd OAI21X1
XFILL_1__1245_ vdd gnd FILL
XFILL_1__1176_ vdd gnd FILL
XFILL_1__1314_ vdd gnd FILL
XFILL88650x46950 vdd gnd FILL
XFILL_2__1285_ vdd gnd FILL
XFILL_0__887_ vdd gnd FILL
XFILL_0__956_ vdd gnd FILL
X_1480_ _1490_/A _1480_/B _1480_/C _1783_/D vdd gnd AOI21X1
X_909_ _918_/A _909_/B _909_/C _913_/B vdd gnd OAI21X1
XFILL_0__1685_ vdd gnd FILL
XFILL_1__1030_ vdd gnd FILL
X_1747_ _1747_/D _1797_/CLK _883_/B vdd gnd DFFPOSX1
XFILL_0__1119_ vdd gnd FILL
X_1678_ _1678_/A _1696_/B _1696_/A _1703_/A vdd gnd OAI21X1
XFILL_1_BUFX2_insert4 vdd gnd FILL
XFILL_1__1159_ vdd gnd FILL
XFILL_1__1228_ vdd gnd FILL
XFILL88650x21750 vdd gnd FILL
XFILL_0__1470_ vdd gnd FILL
XFILL_2__1199_ vdd gnd FILL
XFILL_0__939_ vdd gnd FILL
X_1601_ _1644_/A _1644_/B _1601_/C _1602_/B vdd gnd OAI21X1
X_1532_ _1532_/A _1532_/B _996_/C _1534_/B vdd gnd AOI21X1
X_1394_ _1781_/Q _1405_/B _1399_/C vdd gnd NAND2X1
X_1463_ _1463_/A _923_/C _1463_/C _1775_/D vdd gnd OAI21X1
XFILL_0__1668_ vdd gnd FILL
XFILL_0__1599_ vdd gnd FILL
XFILL_1__1013_ vdd gnd FILL
XFILL_0__1453_ vdd gnd FILL
XFILL_0__1522_ vdd gnd FILL
XFILL_0__1384_ vdd gnd FILL
XFILL_1__1700_ vdd gnd FILL
X_1515_ _1515_/A _1515_/B _1515_/C _1522_/B vdd gnd NAND3X1
X_1377_ _1377_/A _1399_/B _1400_/A vdd gnd NAND2X1
XFILL_1__1562_ vdd gnd FILL
X_1446_ _1446_/A _1471_/B _1446_/C _1767_/D vdd gnd OAI21X1
XFILL_1__1631_ vdd gnd FILL
XFILL_1__1493_ vdd gnd FILL
X_890_ _918_/A _890_/B _890_/C _894_/B vdd gnd OAI21X1
XFILL88350x43350 vdd gnd FILL
XFILL_2__1105_ vdd gnd FILL
X_1162_ _1496_/A _1162_/B _1163_/C vdd gnd NAND2X1
X_1231_ _1253_/B _1254_/B _1232_/A vdd gnd NOR2X1
X_1300_ _1371_/A _1300_/B _1302_/C vdd gnd NAND2X1
XFILL_1__971_ vdd gnd FILL
X_1093_ _1100_/C _1095_/B vdd gnd INVX1
XFILL_0__1436_ vdd gnd FILL
XFILL_0__1505_ vdd gnd FILL
XBUFX2_insert5 Stg[0] _982_/S vdd gnd BUFX2
XFILL_0__1367_ vdd gnd FILL
XFILL_0__1298_ vdd gnd FILL
X_1429_ _975_/B _1480_/B _1429_/C _1759_/D vdd gnd OAI21X1
XFILL_1_BUFX2_insert31 vdd gnd FILL
XFILL_1_BUFX2_insert20 vdd gnd FILL
XFILL_1_BUFX2_insert42 vdd gnd FILL
XFILL_1__1476_ vdd gnd FILL
XFILL_1_BUFX2_insert53 vdd gnd FILL
XFILL_1__1614_ vdd gnd FILL
XFILL_1__1545_ vdd gnd FILL
XFILL_2__936_ vdd gnd FILL
X_873_ _876_/A _875_/A _874_/A vdd gnd NOR2X1
X_942_ _942_/A _942_/B _942_/S _981_/B vdd gnd MUX2X1
XFILL_0__1221_ vdd gnd FILL
X_1780_ _1780_/D _1797_/CLK _1780_/Q vdd gnd DFFPOSX1
XFILL_0__1152_ vdd gnd FILL
XFILL_0__1083_ vdd gnd FILL
XFILL_1__954_ vdd gnd FILL
XFILL_1__885_ vdd gnd FILL
X_1214_ _1757_/Q _1214_/B _1214_/C _1239_/A vdd gnd NAND3X1
XFILL_1__1330_ vdd gnd FILL
X_1145_ _947_/A _1145_/B _1146_/C vdd gnd NAND2X1
XFILL_1__1192_ vdd gnd FILL
X_1076_ _1076_/A _1076_/B _1076_/C _1100_/A vdd gnd OAI21X1
XFILL_1__1261_ vdd gnd FILL
XFILL_0__1419_ vdd gnd FILL
XFILL_1__1459_ vdd gnd FILL
XFILL_1__1528_ vdd gnd FILL
XFILL_2__919_ vdd gnd FILL
XFILL_0__972_ vdd gnd FILL
X_925_ _925_/A _951_/A vdd gnd INVX1
XFILL_2__1706_ vdd gnd FILL
XFILL_0__1204_ vdd gnd FILL
XCLKBUF1_insert12 clk _1794_/CLK vdd gnd CLKBUF1
XFILL_0__1135_ vdd gnd FILL
XFILL_0__1066_ vdd gnd FILL
X_1763_ _1763_/D _1782_/CLK _982_/B vdd gnd DFFPOSX1
X_1694_ _1694_/A _1694_/B _1718_/C _1700_/B vdd gnd OAI21X1
XFILL_1__937_ vdd gnd FILL
XFILL_1__868_ vdd gnd FILL
XFILL_1__1313_ vdd gnd FILL
X_1059_ _948_/B _1371_/B vdd gnd INVX1
X_1128_ _1209_/B _1209_/A _1515_/A _1129_/C vdd gnd OAI21X1
XFILL_1__1244_ vdd gnd FILL
XFILL_1__1175_ vdd gnd FILL
XFILL_2__1422_ vdd gnd FILL
XFILL_0__886_ vdd gnd FILL
XFILL_0__955_ vdd gnd FILL
X_908_ _918_/A _908_/B _909_/C vdd gnd NAND2X1
XFILL_0__1684_ vdd gnd FILL
X_1815_ _906_/Y Yout[1] vdd gnd BUFX2
X_1746_ _1746_/D _1797_/CLK _868_/B vdd gnd DFFPOSX1
XFILL_0__1118_ vdd gnd FILL
XFILL_0__1049_ vdd gnd FILL
X_1677_ _1694_/A _1696_/A vdd gnd INVX1
XFILL_1_BUFX2_insert5 vdd gnd FILL
XFILL_1__1158_ vdd gnd FILL
XFILL_1__1089_ vdd gnd FILL
XFILL_1__1227_ vdd gnd FILL
XFILL_2__1405_ vdd gnd FILL
XFILL_2__1336_ vdd gnd FILL
XFILL_0__938_ vdd gnd FILL
XFILL_0__869_ vdd gnd FILL
X_1600_ _1625_/A _1600_/B _1600_/C _1601_/C vdd gnd NAND3X1
X_1462_ Yin[1] _923_/C _1463_/C vdd gnd NAND2X1
X_1531_ _1537_/A _1531_/B _1537_/B _1532_/B vdd gnd OAI21X1
X_1393_ _1404_/A _1475_/A _1395_/A vdd gnd NAND2X1
XFILL_0__1667_ vdd gnd FILL
XFILL_0__1598_ vdd gnd FILL
XFILL_1__1012_ vdd gnd FILL
X_1729_ _997_/Y _1798_/CLK _953_/A vdd gnd DFFPOSX1
XFILL_2__1121_ vdd gnd FILL
XFILL_2__1052_ vdd gnd FILL
XFILL_0__1383_ vdd gnd FILL
XFILL_2__1319_ vdd gnd FILL
XFILL_0__1452_ vdd gnd FILL
XFILL_0__1521_ vdd gnd FILL
X_1445_ Yin[1] _1471_/B _1446_/C vdd gnd NAND2X1
X_1514_ _927_/A _941_/B _1515_/C vdd gnd NAND2X1
X_1376_ _1473_/A _1376_/B _1377_/A vdd gnd NAND2X1
XFILL_1__1492_ vdd gnd FILL
XFILL_1__1630_ vdd gnd FILL
XFILL_1__1561_ vdd gnd FILL
XFILL_0__1719_ vdd gnd FILL
XFILL_2__883_ vdd gnd FILL
XFILL_2__952_ vdd gnd FILL
XFILL_2__1035_ vdd gnd FILL
XFILL_1__970_ vdd gnd FILL
X_1161_ _1161_/A _1165_/B _956_/A _1162_/B vdd gnd OAI21X1
X_1092_ _1094_/C _1094_/B _968_/B _1100_/C vdd gnd AOI21X1
XFILL87750x46950 vdd gnd FILL
X_1230_ _1253_/A _1230_/B _1230_/C _1254_/B vdd gnd OAI21X1
XBUFX2_insert6 Stg[0] _1053_/A vdd gnd BUFX2
XFILL_0__1366_ vdd gnd FILL
XFILL_0__1435_ vdd gnd FILL
XFILL_0__1504_ vdd gnd FILL
XFILL_0__1297_ vdd gnd FILL
XFILL_1_BUFX2_insert54 vdd gnd FILL
X_1428_ Xin[1] _1480_/B _1429_/C vdd gnd NAND2X1
XFILL_1_BUFX2_insert10 vdd gnd FILL
XFILL_1__1613_ vdd gnd FILL
XFILL_1_BUFX2_insert21 vdd gnd FILL
XFILL_1_BUFX2_insert43 vdd gnd FILL
XFILL_1_BUFX2_insert32 vdd gnd FILL
XFILL_1__1475_ vdd gnd FILL
X_1359_ _1644_/A _983_/S _989_/A _1360_/A vdd gnd OAI21X1
XFILL_1__1544_ vdd gnd FILL
XFILL_2__866_ vdd gnd FILL
XFILL_2__1722_ vdd gnd FILL
X_941_ _941_/A _941_/B _979_/S _942_/A vdd gnd MUX2X1
X_872_ _872_/A _922_/A _872_/C _878_/B vdd gnd AOI21X1
XFILL_2__1653_ vdd gnd FILL
XFILL_0__1220_ vdd gnd FILL
XFILL_0__1151_ vdd gnd FILL
XFILL_2__1018_ vdd gnd FILL
XFILL87750x21750 vdd gnd FILL
XFILL_0__1082_ vdd gnd FILL
X_1213_ _1230_/C _1230_/B _1214_/C vdd gnd OR2X2
XFILL_1__953_ vdd gnd FILL
XFILL_1__884_ vdd gnd FILL
X_1075_ _923_/D _1412_/A _1099_/C vdd gnd NAND2X1
XFILL_1__1260_ vdd gnd FILL
XFILL88650x150 vdd gnd FILL
X_1144_ _1605_/A _1144_/B _1209_/B _1224_/B vdd gnd AOI21X1
XFILL_1__1191_ vdd gnd FILL
XFILL_0__1349_ vdd gnd FILL
XFILL_0__1418_ vdd gnd FILL
XFILL_1__1389_ vdd gnd FILL
XFILL_0__971_ vdd gnd FILL
XFILL_1__1458_ vdd gnd FILL
XFILL_1__1527_ vdd gnd FILL
X_924_ _924_/A _924_/B _924_/C _924_/Y vdd gnd OAI21X1
XFILL_2__1636_ vdd gnd FILL
XFILL_0__1203_ vdd gnd FILL
XFILL_0__1134_ vdd gnd FILL
XCLKBUF1_insert13 clk _1785_/CLK vdd gnd CLKBUF1
XFILL_0__1065_ vdd gnd FILL
X_1762_ _1762_/D _1782_/CLK _983_/A vdd gnd DFFPOSX1
X_1693_ _1718_/A _1700_/A vdd gnd INVX1
XFILL_1__867_ vdd gnd FILL
XFILL_1__936_ vdd gnd FILL
XFILL_1__1243_ vdd gnd FILL
XFILL_1__1312_ vdd gnd FILL
X_1058_ _1058_/A _1084_/B _1061_/A vdd gnd NAND2X1
X_1127_ _1605_/A _1446_/A _1209_/B vdd gnd NOR2X1
XFILL_1__1174_ vdd gnd FILL
XFILL_2__1352_ vdd gnd FILL
XFILL_2__1283_ vdd gnd FILL
XFILL_0__954_ vdd gnd FILL
XFILL_0__885_ vdd gnd FILL
X_907_ _907_/A _909_/B vdd gnd INVX1
XFILL_2__1619_ vdd gnd FILL
XFILL_0__1683_ vdd gnd FILL
XFILL_0__1117_ vdd gnd FILL
X_1745_ _1745_/D _1788_/CLK _886_/D vdd gnd DFFPOSX1
X_1814_ _896_/Y Yout[0] vdd gnd BUFX2
XFILL_0__1048_ vdd gnd FILL
X_1676_ _946_/A _1676_/B _1692_/C _1694_/A vdd gnd OAI21X1
XFILL_1__919_ vdd gnd FILL
XFILL_1_BUFX2_insert6 vdd gnd FILL
XFILL_1__1226_ vdd gnd FILL
XFILL_1__1157_ vdd gnd FILL
XFILL_1__1088_ vdd gnd FILL
XFILL_2__1266_ vdd gnd FILL
XFILL_0__937_ vdd gnd FILL
X_1392_ _1781_/Q _1475_/A vdd gnd INVX1
XFILL_0__868_ vdd gnd FILL
X_1461_ _999_/Y _923_/C _1461_/C _1774_/D vdd gnd OAI21X1
X_1530_ _1530_/A _1532_/A vdd gnd INVX1
XFILL_0__1666_ vdd gnd FILL
XFILL_0__1597_ vdd gnd FILL
XFILL_1__1011_ vdd gnd FILL
X_1728_ _951_/Y _1798_/CLK _925_/A vdd gnd DFFPOSX1
X_1659_ _946_/A _1659_/B _1692_/C _1684_/A vdd gnd OAI21X1
XFILL_1__1209_ vdd gnd FILL
XFILL_0__1520_ vdd gnd FILL
XFILL_0__1382_ vdd gnd FILL
XFILL_0__1451_ vdd gnd FILL
XFILL_2__1249_ vdd gnd FILL
X_1375_ _1780_/Q _1473_/A vdd gnd INVX1
X_1444_ _1699_/A _1471_/B _1444_/C _1766_/D vdd gnd OAI21X1
X_1513_ _984_/S _1513_/B _1513_/C _1515_/B vdd gnd NAND3X1
XFILL_1__1491_ vdd gnd FILL
XFILL_0__1718_ vdd gnd FILL
XFILL_1__1560_ vdd gnd FILL
XFILL_0__1649_ vdd gnd FILL
XFILL_1__1689_ vdd gnd FILL
X_1160_ _1184_/A _1184_/B _1161_/A vdd gnd NOR2X1
XBUFX2_insert7 _952_/Y _1412_/A vdd gnd BUFX2
X_1091_ _965_/A _1091_/B _1113_/A _1094_/C vdd gnd OAI21X1
XFILL_0__1503_ vdd gnd FILL
XFILL_0__1365_ vdd gnd FILL
XFILL_0__1296_ vdd gnd FILL
XFILL_0__1434_ vdd gnd FILL
XFILL_1_BUFX2_insert11 vdd gnd FILL
XFILL_1_BUFX2_insert55 vdd gnd FILL
X_1358_ _955_/A _1511_/A _1371_/A _1533_/B vdd gnd NAND3X1
X_1427_ _937_/B _1480_/B _1427_/C _1758_/D vdd gnd OAI21X1
XFILL_1__1612_ vdd gnd FILL
XFILL_1_BUFX2_insert44 vdd gnd FILL
XFILL_1_BUFX2_insert33 vdd gnd FILL
XFILL_1_BUFX2_insert22 vdd gnd FILL
XFILL_1_CLKBUF1_insert12 vdd gnd FILL
XFILL_1__1474_ vdd gnd FILL
X_1289_ _1289_/A _1786_/Q _1290_/B vdd gnd OR2X2
XFILL_1__1543_ vdd gnd FILL
X_871_ _871_/A _921_/D _871_/C _872_/C vdd gnd OAI21X1
X_940_ _986_/S _940_/B _940_/C _941_/A vdd gnd OAI21X1
XFILL_2__1583_ vdd gnd FILL
XFILL88050x25350 vdd gnd FILL
XFILL88650x72150 vdd gnd FILL
XFILL_0__1150_ vdd gnd FILL
XFILL_0__1081_ vdd gnd FILL
XFILL_1__883_ vdd gnd FILL
XFILL_1__952_ vdd gnd FILL
X_1212_ _1230_/B _1230_/C _1214_/B vdd gnd NAND2X1
X_1074_ _1074_/A _1074_/B _1074_/C _1732_/D vdd gnd OAI21X1
X_1143_ _1186_/C _1148_/C vdd gnd INVX1
XFILL_0__1417_ vdd gnd FILL
XFILL_1__1190_ vdd gnd FILL
XFILL_0__1348_ vdd gnd FILL
XFILL_0__1279_ vdd gnd FILL
XFILL_1__1526_ vdd gnd FILL
XFILL_1__1388_ vdd gnd FILL
XFILL_0__970_ vdd gnd FILL
XFILL_1__1457_ vdd gnd FILL
X_923_ _923_/A _923_/B _923_/C _923_/D _924_/C vdd gnd AOI22X1
XFILL_2__1497_ vdd gnd FILL
XFILL_2__1566_ vdd gnd FILL
XFILL_0__1202_ vdd gnd FILL
X_1761_ _1761_/D _1785_/CLK _986_/B vdd gnd DFFPOSX1
XFILL_0__1133_ vdd gnd FILL
XCLKBUF1_insert14 clk _1798_/CLK vdd gnd CLKBUF1
XFILL_0__1064_ vdd gnd FILL
X_1692_ _946_/A _1692_/B _1692_/C _1718_/A vdd gnd OAI21X1
XFILL_1__866_ vdd gnd FILL
XFILL_1__935_ vdd gnd FILL
X_1126_ _1767_/Q _1446_/A vdd gnd INVX1
XFILL_1__1242_ vdd gnd FILL
XFILL_1__1311_ vdd gnd FILL
XFILL_1__1173_ vdd gnd FILL
X_1057_ _1544_/D _1084_/B vdd gnd INVX1
XFILL_1__1509_ vdd gnd FILL
XFILL_0__884_ vdd gnd FILL
XFILL_0__953_ vdd gnd FILL
XFILL_0__1682_ vdd gnd FILL
X_906_ _924_/A _906_/B _906_/C _906_/Y vdd gnd OAI21X1
X_1813_ _924_/Y Xout[1] vdd gnd BUFX2
XFILL_0__1047_ vdd gnd FILL
XFILL_0__1116_ vdd gnd FILL
X_1744_ _1744_/D _1788_/CLK _877_/D vdd gnd DFFPOSX1
X_1675_ _1684_/A _1684_/B _1696_/B vdd gnd NOR2X1
XFILL_1__918_ vdd gnd FILL
XFILL_1_BUFX2_insert7 vdd gnd FILL
X_1109_ _1471_/A _1111_/C _1142_/C _1115_/B vdd gnd NAND3X1
XFILL_1__1156_ vdd gnd FILL
XFILL_1__1225_ vdd gnd FILL
XFILL_1__1087_ vdd gnd FILL
XFILL_0__867_ vdd gnd FILL
XFILL_2__1196_ vdd gnd FILL
XFILL_0__936_ vdd gnd FILL
X_1391_ _1402_/A _1391_/B _1391_/C _1397_/B vdd gnd AOI21X1
X_1460_ Yin[0] _923_/C _1461_/C vdd gnd NAND2X1
XFILL_0__1596_ vdd gnd FILL
XFILL_0__1665_ vdd gnd FILL
XFILL_1__1010_ vdd gnd FILL
X_1727_ _1727_/A _1727_/B _1807_/D vdd gnd NAND2X1
X_1658_ _1658_/A _1692_/C vdd gnd INVX1
X_1589_ _1607_/A _1676_/B _1589_/C _1609_/B vdd gnd OAI21X1
XFILL_1__1208_ vdd gnd FILL
XFILL_1__1139_ vdd gnd FILL
XFILL_0__1450_ vdd gnd FILL
XFILL_0__1381_ vdd gnd FILL
XFILL_0__919_ vdd gnd FILL
X_1512_ _986_/S _978_/B _1513_/B vdd gnd NAND2X1
X_1374_ _1780_/Q _1374_/B _1399_/B vdd gnd NAND2X1
X_1443_ Yin[0] _1471_/B _1444_/C vdd gnd NAND2X1
XFILL_1__1490_ vdd gnd FILL