*SPEF "IEEE 1481.1999"
*DESIGN "nco"
*DATE "20:29:58 Tuesday November 25, 2025"
*VENDOR "unknown"
*PROGRAM "qrouter"
*VERSION "unknown"
*DESIGN_FLOW "qflow"
*DIVIDER /
*DELIMITER :
*BUS_DELIMITER <>
*T_UNIT 1 PS
*C_UNIT 1 FF
*R_UNIT 1 OHM
*L_UNIT 1 HENRY

*NAME_MAP
*1 \genblk1[7]_u_ce_Vld\
*2 _14215_
*3 _13807_
*4 _13712_
*5 _13764_
*6 _13643_
*7 _13570_
*8 _13761_
*9 _13571_
*10 _14012_
*11 _14052_
*12 _13985_
*13 _14011_
*14 _13567_
*15 _14548_
*16 _13620_
*17 _13619_
*18 \u_ot_LoadCtl\[0]
*19 _14548_
*20 _14496_
*21 _14549_
*22 _14469_
*23 _14464_
*24 _14434_
*25 _14468_
*26 _14466_
*27 _14470_
*28 _14494_
*29 _14495_
*30 _14497_
*31 _14471_
*32 _14492_
*33 _14490_
*34 _14457_
*35 _2599_
*36 _9849_
*37 _10613_
*38 _10616_
*39 _10612_
*40 _10604_
*41 _10670_
*42 _10667_
*43 _10641_
*44 _10644_
*45 _9870_
*46 _9869_
*47 _9851_
*48 _9897_
*49 _3313_
*50 _10606_
*51 _10664_
*52 _10665_
*53 _10662_
*54 _10663_
*55 _10636_
*56 _10637_
*57 _10609_
*58 _10608_
*59 _10610_
*60 _10639_
*61 _10638_
*62 _10607_
*63 _3321_
*64 _10618_
*65 _10672_
*66 _10673_
*67 _10647_
*68 _10646_
*69 _10649_
*70 _10648_
*71 _10622_
*72 _10621_
*73 _10620_
*74 _10619_
*75 _10675_
*76 _10674_
*77 _3324_
*78 _10623_
*79 _10679_
*80 _10678_
*81 _10676_
*82 _10677_
*83 _10625_
*84 _10624_
*85 _10626_
*86 _10627_
*87 _10652_
*88 _10653_
*89 _10651_
*90 _10650_
*91 _3437_
*92 _10773_
*93 _11528_
*94 _11565_
*95 _11568_
*96 _11540_
*97 _11537_
*98 _11594_
*99 _11536_
*100 _11591_
*101 _10821_
*102 _10793_
*103 _10794_
*104 _10775_
*105 _4151_
*106 _11530_
*107 _11588_
*108 _11587_
*109 _11586_
*110 _11589_
*111 _11531_
*112 _11532_
*113 _11562_
*114 _11533_
*115 _11563_
*116 _11534_
*117 _11561_
*118 _11560_
*119 _4159_
*120 _11542_
*121 _11573_
*122 _11572_
*123 _11599_
*124 _11598_
*125 _11597_
*126 _11596_
*127 _11570_
*128 _11571_
*129 _11544_
*130 _11543_
*131 _11546_
*132 _11545_
*133 _4162_
*134 _11547_
*135 _11549_
*136 _11548_
*137 _11551_
*138 _11550_
*139 _11576_
*140 _11577_
*141 _11575_
*142 _11574_
*143 _11602_
*144 _11603_
*145 _11601_
*146 _11600_
*147 _4275_
*148 _11697_
*149 _12452_
*150 _12460_
*151 _12518_
*152 _12515_
*153 _12464_
*154 _12461_
*155 _12489_
*156 _12492_
*157 _11718_
*158 _11717_
*159 _11745_
*160 _11699_
*161 _4989_
*162 _12454_
*163 _12513_
*164 _12512_
*165 _12484_
*166 _12485_
*167 _12486_
*168 _12487_
*169 _12458_
*170 _12456_
*171 _12455_
*172 _12510_
*173 _12511_
*174 _12457_
*175 _4997_
*176 _12466_
*177 _12521_
*178 _12520_
*179 _12522_
*180 _12523_
*181 _12495_
*182 _12494_
*183 _12497_
*184 _12496_
*185 _12468_
*186 _12469_
*187 _12470_
*188 _12467_
*189 _5000_
*190 _12471_
*191 _12527_
*192 _12526_
*193 _12525_
*194 _12524_
*195 _12474_
*196 _12475_
*197 _12472_
*198 _12473_
*199 _12500_
*200 _12501_
*201 _12498_
*202 _12499_
*203 _5796_
*204 _13346_
*205 _13403_
*206 _13402_
*207 _13404_
*208 _13405_
*209 _13347_
*210 _13349_
*211 _13348_
*212 _13379_
*213 _13378_
*214 _13377_
*215 _13376_
*216 _13350_
*217 _5804_
*218 _13358_
*219 _13412_
*220 _13413_
*221 _13415_
*222 _13414_
*223 _13387_
*224 _13389_
*225 _13362_
*226 _13361_
*227 _13360_
*228 _13359_
*229 _13386_
*230 _13388_
*231 _5807_
*232 _13363_
*233 _13390_
*234 _13391_
*235 _13393_
*236 _13392_
*237 _13367_
*238 _13366_
*239 _13365_
*240 _13364_
*241 _13418_
*242 _13419_
*243 _13416_
*244 _13417_
*245 _6565_
*246 _14257_
*247 _14363_
*248 _14360_
*249 _14282_
*250 _14320_
*251 _14407_
*252 _14374_
*253 _14378_
*254 _14499_
*255 _14353_
*256 _14271_
*257 _14267_
*258 _14259_
*259 _85_
*260 _7077_
*261 _7895_
*262 _7898_
*263 _7840_
*264 _7832_
*265 _7098_
*266 _7097_
*267 _7869_
*268 _7872_
*269 _7125_
*270 _7844_
*271 _7841_
*272 _7079_
*273 _799_
*274 _7834_
*275 _7891_
*276 _7890_
*277 _7893_
*278 _7892_
*279 _7865_
*280 _7864_
*281 _7867_
*282 _7837_
*283 _7866_
*284 _7838_
*285 _7836_
*286 _7835_
*287 _807_
*288 _7846_
*289 _7875_
*290 _7874_
*291 _7876_
*292 _7877_
*293 _7850_
*294 _7849_
*295 _7847_
*296 _7848_
*297 _7900_
*298 _7901_
*299 _7902_
*300 _7903_
*301 _810_
*302 _7851_
*303 _7904_
*304 _7905_
*305 _7907_
*306 _7906_
*307 _7854_
*308 _7855_
*309 _7881_
*310 _7880_
*311 _7879_
*312 _7878_
*313 _7853_
*314 _7852_
*315 _923_
*316 _8001_
*317 _8756_
*318 _8049_
*319 _8022_
*320 _8021_
*321 _8793_
*322 _8765_
*323 _8796_
*324 _8768_
*325 _8764_
*326 _8819_
*327 _8822_
*328 _8003_
*329 _1637_
*330 _8758_
*331 _8814_
*332 _8815_
*333 _8759_
*334 _8761_
*335 _8788_
*336 _8789_
*337 _8762_
*338 _8760_
*339 _8790_
*340 _8791_
*341 _8817_
*342 _8816_
*343 _1645_
*344 _8770_
*345 _8825_
*346 _8824_
*347 _8774_
*348 _8773_
*349 _8801_
*350 _8800_
*351 _8772_
*352 _8771_
*353 _8827_
*354 _8826_
*355 _8798_
*356 _8799_
*357 _1648_
*358 _8775_
*359 _8776_
*360 _8778_
*361 _8779_
*362 _8777_
*363 _8802_
*364 _8803_
*365 _8804_
*366 _8805_
*367 _8828_
*368 _8829_
*369 _8830_
*370 _8831_
*371 _1761_
*372 _8925_
*373 _9720_
*374 _9680_
*375 _9717_
*376 _9746_
*377 _9743_
*378 _9688_
*379 _9692_
*380 _9689_
*381 _8927_
*382 _8973_
*383 _8945_
*384 _8946_
*385 _2475_
*386 _9682_
*387 _9712_
*388 _9713_
*389 _9684_
*390 _9686_
*391 _9714_
*392 _9685_
*393 _9683_
*394 _9715_
*395 _9739_
*396 _9738_
*397 _9740_
*398 _9741_
*399 _2483_
*400 _9694_
*401 _9725_
*402 _9724_
*403 _9722_
*404 _9723_
*405 _9698_
*406 _9697_
*407 _9695_
*408 _9696_
*409 _9748_
*410 _9751_
*411 _9750_
*412 _9749_
*413 _2486_
*414 _9699_
*415 _9754_
*416 _9755_
*417 _9753_
*418 _9752_
*419 _9727_
*420 _9726_
*421 _9729_
*422 _9728_
*423 _9702_
*424 _9700_
*425 _9701_
*426 _9703_
*427 _5105_
*428 _12619_
*429 _12635_
*430 _12634_
*431 _13344_
*432 _13410_
*433 _13384_
*434 _13381_
*435 _13353_
*436 _13352_
*437 _13356_
*438 _13407_
*439 _12662_
*440 clk_hier0_bF_buf1
*441 CLKBUF1_insert390
*442 CLKBUF1_insert79
*443 CLKBUF1_insert99
*444 CLKBUF1_insert100
*445 CLKBUF1_insert41
*446 CLKBUF1_insert86
*447 CLKBUF1_insert73
*448 CLKBUF1_insert35
*449 CLKBUF1_insert57
*450 CLKBUF1_insert67
*451 CLKBUF1_insert40
*452 clk_hier0_bF_buf2
*453 CLKBUF1_insert389
*454 CLKBUF1_insert98
*455 CLKBUF1_insert61
*456 CLKBUF1_insert49
*457 CLKBUF1_insert39
*458 CLKBUF1_insert96
*459 CLKBUF1_insert29
*460 CLKBUF1_insert72
*461 CLKBUF1_insert92
*462 CLKBUF1_insert76
*463 CLKBUF1_insert89
*464 clk_hier0_bF_buf3
*465 CLKBUF1_insert388
*466 CLKBUF1_insert88
*467 CLKBUF1_insert84
*468 CLKBUF1_insert60
*469 CLKBUF1_insert42
*470 CLKBUF1_insert107
*471 CLKBUF1_insert75
*472 CLKBUF1_insert63
*473 CLKBUF1_insert97
*474 CLKBUF1_insert58
*475 CLKBUF1_insert32
*476 clk_hier0_bF_buf4
*477 CLKBUF1_insert387
*478 CLKBUF1_insert62
*479 CLKBUF1_insert56
*480 CLKBUF1_insert77
*481 CLKBUF1_insert87
*482 CLKBUF1_insert102
*483 CLKBUF1_insert47
*484 CLKBUF1_insert54
*485 CLKBUF1_insert82
*486 CLKBUF1_insert34
*487 CLKBUF1_insert103
*488 clk_hier0_bF_buf5
*489 CLKBUF1_insert386
*490 CLKBUF1_insert80
*491 CLKBUF1_insert94
*492 CLKBUF1_insert105
*493 CLKBUF1_insert65
*494 CLKBUF1_insert64
*495 CLKBUF1_insert70
*496 CLKBUF1_insert106
*497 CLKBUF1_insert31
*498 CLKBUF1_insert44
*499 CLKBUF1_insert91
*500 clk_hier0_bF_buf6
*501 CLKBUF1_insert385
*502 CLKBUF1_insert46
*503 CLKBUF1_insert83
*504 CLKBUF1_insert93
*505 CLKBUF1_insert36
*506 CLKBUF1_insert53
*507 CLKBUF1_insert59
*508 CLKBUF1_insert52
*509 CLKBUF1_insert43
*510 CLKBUF1_insert69
*511 CLKBUF1_insert104
*512 clk_hier0_bF_buf7
*513 CLKBUF1_insert384
*514 CLKBUF1_insert30
*515 CLKBUF1_insert66
*516 CLKBUF1_insert78
*517 CLKBUF1_insert45
*518 CLKBUF1_insert51
*519 CLKBUF1_insert55
*520 CLKBUF1_insert50
*521 CLKBUF1_insert37
*522 CLKBUF1_insert101
*523 CLKBUF1_insert74
*524 \genblk1[3]_u_ce_LoadCtl\[4]
*525 _10765_
*526 _10766_
*527 _9849_
*528 _9888_
*529 _9887_
*530 _9896_
*531 _9861_
*532 _9848_
*533 _9860_
*534 _9878_
*535 _9879_
*536 \genblk1[4]_u_ce_LoadCtl\[4]
*537 _11689_
*538 _10784_
*539 _10772_
*540 _10785_
*541 _11690_
*542 _10773_
*543 _10811_
*544 _10820_
*545 _10812_
*546 _10803_
*547 _10802_
*548 \genblk1[5]_u_ce_LoadCtl\[4]
*549 _12613_
*550 _11708_
*551 _11744_
*552 _11735_
*553 _11736_
*554 _11709_
*555 _11696_
*556 _11697_
*557 _12614_
*558 _11727_
*559 _11726_
*560 _6455_
*561 _14101_
*562 _14104_
*563 _14105_
*564 _14131_
*565 _14102_
*566 _14158_
*567 _14157_
*568 _14133_
*569 _14134_
*570 _14103_
*571 _14132_
*572 \genblk1[0]_u_ce_LoadCtl\[4]
*573 _7993_
*574 _7088_
*575 _7089_
*576 _7076_
*577 _7107_
*578 _7106_
*579 _7994_
*580 _7116_
*581 _7115_
*582 _7124_
*583 _7077_
*584 \genblk1[1]_u_ce_LoadCtl\[4]
*585 _8917_
*586 _8000_
*587 _8918_
*588 _8001_
*589 _8039_
*590 _8048_
*591 _8040_
*592 _8031_
*593 _8030_
*594 _8012_
*595 _8013_
*596 \genblk1[2]_u_ce_LoadCtl\[4]
*597 _9841_
*598 _8937_
*599 _8936_
*600 _8924_
*601 _8925_
*602 _9842_
*603 _8963_
*604 _8972_
*605 _8964_
*606 _8955_
*607 _8954_
*608 clk_hier0_bF_buf0
*609 CLKBUF1_insert391
*610 CLKBUF1_insert38
*611 CLKBUF1_insert81
*612 CLKBUF1_insert85
*613 CLKBUF1_insert33
*614 CLKBUF1_insert68
*615 CLKBUF1_insert95
*616 CLKBUF1_insert71
*617 CLKBUF1_insert48
*618 CLKBUF1_insert90
*619 clk_bF_buf5
*620 CLKBUF1_insert102
*621 _12548_
*622 _12588_
*623 _12547_
*624 _12587_
*625 _12594_
*626 _12589_
*627 _12593_
*628 _12595_
*629 _12596_
*630 clk_bF_buf6
*631 CLKBUF1_insert101
*632 _12553_
*633 _12559_
*634 _12560_
*635 _12551_
*636 _12584_
*637 _12549_
*638 _12550_
*639 _12583_
*640 _12597_
*641 clk_bF_buf7
*642 CLKBUF1_insert100
*643 _10733_
*644 _10746_
*645 _10742_
*646 _10748_
*647 _10736_
*648 _10743_
*649 _10744_
*650 _10737_
*651 _10735_
*652 clk_bF_buf8
*653 CLKBUF1_insert99
*654 _10767_
*655 _10762_
*656 _10757_
*657 _10758_
*658 _10752_
*659 _10702_
*660 _10753_
*661 _10751_
*662 _10763_
*663 clk_bF_buf9
*664 CLKBUF1_insert98
*665 _7918_
*666 _14507_
*667 _9766_
*668 _14512_
*669 _14514_
*670 _14500_
*671 _14505_
*672 _7945_
*673 _10761_
*674 clk_bF_buf10
*675 CLKBUF1_insert97
*676 _14175_
*677 _14172_
*678 _14198_
*679 _14193_
*680 _14199_
*681 _14210_
*682 _14170_
*683 _14174_
*684 _14171_
*685 clk_bF_buf11
*686 CLKBUF1_insert96
*687 _7949_
*688 _7946_
*689 _7985_
*690 _7979_
*691 _7930_
*692 _7980_
*693 _7986_
*694 _7916_
*695 _7950_
*696 clk_bF_buf12
*697 CLKBUF1_insert95
*698 _11673_
*699 _8844_
*700 _11626_
*701 _11675_
*702 _11683_
*703 _8860_
*704 _8858_
*705 _8893_
*706 _8883_
*707 clk_bF_buf13
*708 CLKBUF1_insert94
*709 _7924_
*710 _9768_
*711 _7923_
*712 _9770_
*713 _9772_
*714 _9779_
*715 _9819_
*716 _9778_
*717 _9777_
*718 clk_bF_buf14
*719 CLKBUF1_insert93
*720 _8854_
*721 _8862_
*722 _8852_
*723 _8847_
*724 _8856_
*725 _8846_
*726 _8851_
*727 _8855_
*728 _8849_
*729 clk_bF_buf15
*730 CLKBUF1_insert92
*731 _7931_
*732 _7956_
*733 _7962_
*734 _7929_
*735 _7963_
*736 _7955_
*737 _7957_
*738 _7964_
*739 _7961_
*740 clk_bF_buf16
*741 CLKBUF1_insert91
*742 _9808_
*743 _9820_
*744 _9813_
*745 _9807_
*746 _9812_
*747 _9801_
*748 _9802_
*749 _9814_
*750 _9805_
*751 clk_bF_buf17
*752 CLKBUF1_insert90
*753 _11654_
*754 _11656_
*755 _11649_
*756 _11660_
*757 _11662_
*758 _11650_
*759 _11652_
*760 _11625_
*761 _11655_
*762 clk_bF_buf18
*763 CLKBUF1_insert89
*764 _7973_
*765 _7976_
*766 _7968_
*767 _7974_
*768 _7970_
*769 _7969_
*770 _7920_
*771 _7975_
*772 _7967_
*773 clk_bF_buf19
*774 CLKBUF1_insert88
*775 _14553_
*776 _14552_
*777 _14537_
*778 _14554_
*779 _14527_
*780 _14528_
*781 _14544_
*782 _14524_
*783 _14551_
*784 clk_bF_buf20
*785 CLKBUF1_insert87
*786 _12614_
*787 _12598_
*788 _12539_
*789 _12536_
*790 _12537_
*791 _12542_
*792 _12540_
*793 _12615_
*794 _12600_
*795 clk_bF_buf21
*796 CLKBUF1_insert86
*797 _10711_
*798 _10729_
*799 _10731_
*800 _10728_
*801 _10730_
*802 _10727_
*803 _10701_
*804 _10703_
*805 _10712_
*806 clk_bF_buf22
*807 CLKBUF1_insert85
*808 _11613_
*809 _11612_
*810 _11665_
*811 _11669_
*812 _11663_
*813 _11670_
*814 _11664_
*815 _11658_
*816 _11615_
*817 clk_bF_buf23
*818 CLKBUF1_insert84
*819 _14215_
*820 _14212_
*821 _14213_
*822 _14214_
*823 _11614_
*824 _14211_
*825 _14182_
*826 _12538_
*827 _14173_
*828 clk_bF_buf24
*829 CLKBUF1_insert83
*830 _9790_
*831 _9829_
*832 _9835_
*833 _9836_
*834 _9791_
*835 _8878_
*836 _8877_
*837 _8889_
*838 _8890_
*839 clk_bF_buf25
*840 CLKBUF1_insert82
*841 _10723_
*842 _10724_
*843 _12544_
*844 _10698_
*845 _12541_
*846 _12546_
*847 _10696_
*848 _10700_
*849 _10749_
*850 clk_bF_buf26
*851 CLKBUF1_insert81
*852 _11688_
*853 _11687_
*854 _11689_
*855 _11682_
*856 _11690_
*857 _11691_
*858 _11678_
*859 _11686_
*860 _11676_
*861 clk_bF_buf27
*862 CLKBUF1_insert80
*863 _7928_
*864 _7994_
*865 _7995_
*866 _7977_
*867 _7917_
*868 _7919_
*869 _7922_
*870 _7927_
*871 _7951_
*872 clk_bF_buf28
*873 CLKBUF1_insert79
*874 _10745_
*875 _10739_
*876 _10734_
*877 _10740_
*878 _10741_
*879 _10747_
*880 _10689_
*881 _10750_
*882 _10688_
*883 clk_bF_buf29
*884 CLKBUF1_insert78
*885 _14190_
*886 _14191_
*887 _14195_
*888 _14194_
*889 _14192_
*890 _14188_
*891 _13500_
*892 _13501_
*893 _13497_
*894 clk_bF_buf30
*895 CLKBUF1_insert77
*896 _12605_
*897 _12611_
*898 _12602_
*899 _12601_
*900 _12562_
*901 _12606_
*902 _12561_
*903 _12564_
*904 _12599_
*905 clk_bF_buf31
*906 CLKBUF1_insert76
*907 _7978_
*908 _7960_
*909 _7953_
*910 _7959_
*911 _7954_
*912 _7965_
*913 _7966_
*914 _7972_
*915 _7971_
*916 clk_bF_buf32
*917 CLKBUF1_insert75
*918 _12565_
*919 _12567_
*920 _12612_
*921 _12570_
*922 _12613_
*923 _12572_
*924 _12571_
*925 _12569_
*926 _12568_
*927 clk_bF_buf33
*928 CLKBUF1_insert74
*929 _13463_
*930 _13464_
*931 _13467_
*932 _12580_
*933 _13469_
*934 _13470_
*935 _12579_
*936 _13465_
*937 _13466_
*938 clk_bF_buf34
*939 CLKBUF1_insert73
*940 _10710_
*941 _14896_
*942 _14874_
*943 _14873_
*944 _14869_
*945 _10709_
*946 _14870_
*947 _14871_
*948 _14872_
*949 clk_bF_buf35
*950 CLKBUF1_insert72
*951 _7932_
*952 _7939_
*953 _7958_
*954 _7940_
*955 _7938_
*956 _7937_
*957 _7933_
*958 _7936_
*959 _7934_
*960 clk_bF_buf36
*961 CLKBUF1_insert71
*962 _8895_
*963 _8896_
*964 _11631_
*965 _11636_
*966 _11633_
*967 _11634_
*968 _11630_
*969 _11629_
*970 _11632_
*971 clk_bF_buf37
*972 CLKBUF1_insert70
*973 _9839_
*974 _9797_
*975 _9798_
*976 _9789_
*977 _9793_
*978 _9795_
*979 _9831_
*980 _9830_
*981 _9825_
*982 clk_bF_buf38
*983 CLKBUF1_insert69
*984 _14548_
*985 _14549_
*986 _14534_
*987 _14532_
*988 _14550_
*989 _14169_
*990 _11685_
*991 _11642_
*992 _10690_
*993 clk_bF_buf39
*994 CLKBUF1_insert68
*995 _11623_
*996 _11619_
*997 _14203_
*998 _11622_
*999 _11620_
*1000 _11618_
*1001 _14202_
*1002 _14206_
*1003 _14207_
*1004 clk_bF_buf40
*1005 CLKBUF1_insert67
*1006 _14900_
*1007 _14902_
*1008 _14903_
*1009 _14899_
*1010 _14901_
*1011 _14904_
*1012 _14889_
*1013 _14888_
*1014 _14890_
*1015 clk_bF_buf41
*1016 CLKBUF1_insert66
*1017 _13498_
*1018 _13499_
*1019 _13437_
*1020 _13436_
*1021 _13435_
*1022 _13433_
*1023 _13434_
*1024 _13440_
*1025 _13438_
*1026 clk_bF_buf42
*1027 CLKBUF1_insert65
*1028 _9780_
*1029 _9783_
*1030 _9773_
*1031 _9775_
*1032 _9782_
*1033 _9788_
*1034 _9786_
*1035 _9785_
*1036 _9784_
*1037 clk_bF_buf43
*1038 CLKBUF1_insert64
*1039 _9799_
*1040 _9840_
*1041 _9800_
*1042 _7982_
*1043 _7993_
*1044 _7992_
*1045 _9841_
*1046 _7926_
*1047 _7952_
*1048 clk_bF_buf44
*1049 CLKBUF1_insert63
*1050 _13494_
*1051 _13456_
*1052 _13487_
*1053 _13491_
*1054 _13453_
*1055 _13454_
*1056 _13457_
*1057 _13485_
*1058 _13486_
*1059 clk_bF_buf45
*1060 CLKBUF1_insert62
*1061 _10722_
*1062 _10721_
*1063 _10717_
*1064 _10756_
*1065 _10755_
*1066 _10713_
*1067 _10754_
*1068 _10718_
*1069 _12610_
*1070 clk_bF_buf46
*1071 CLKBUF1_insert61
*1072 _8870_
*1073 _14502_
*1074 _8872_
*1075 _14503_
*1076 _8871_
*1077 _8869_
*1078 _14509_
*1079 _14501_
*1080 _14513_
*1081 clk_bF_buf47
*1082 CLKBUF1_insert60
*1083 _14161_
*1084 _13430_
*1085 _12609_
*1086 _14541_
*1087 _12603_
*1088 _14539_
*1089 _14536_
*1090 _14525_
*1091 _12566_
*1092 clk_bF_buf48
*1093 CLKBUF1_insert59
*1094 _8905_
*1095 _8909_
*1096 _8840_
*1097 _8880_
*1098 _8886_
*1099 _8882_
*1100 _8912_
*1101 _8910_
*1102 _8866_
*1103 clk_bF_buf49
*1104 CLKBUF1_insert58
*1105 _11640_
*1106 _14165_
*1107 _14167_
*1108 _14168_
*1109 _14205_
*1110 _14159_
*1111 _14200_
*1112 _14201_
*1113 _14204_
*1114 clk_bF_buf50
*1115 CLKBUF1_insert57
*1116 _14886_
*1117 _14887_
*1118 _14883_
*1119 _14882_
*1120 _14881_
*1121 _10732_
*1122 _10726_
*1123 _10725_
*1124 _10738_
*1125 clk_bF_buf51
*1126 CLKBUF1_insert56
*1127 _12607_
*1128 _12608_
*1129 _14543_
*1130 _12604_
*1131 _14542_
*1132 _14538_
*1133 _12563_
*1134 _14555_
*1135 _14540_
*1136 clk_bF_buf52
*1137 CLKBUF1_insert55
*1138 _13482_
*1139 _13480_
*1140 _13473_
*1141 _13475_
*1142 _13461_
*1143 _13462_
*1144 _13468_
*1145 _13479_
*1146 _13481_
*1147 clk_bF_buf53
*1148 CLKBUF1_insert54
*1149 _10694_
*1150 _10691_
*1151 _10692_
*1152 _10693_
*1153 _10697_
*1154 _10695_
*1155 _10699_
*1156 _12543_
*1157 _12545_
*1158 clk_bF_buf54
*1159 CLKBUF1_insert53
*1160 _8897_
*1161 _8898_
*1162 _8894_
*1163 _8888_
*1164 _8884_
*1165 _8881_
*1166 _8887_
*1167 _8885_
*1168 _8843_
*1169 clk_bF_buf55
*1170 CLKBUF1_insert52
*1171 _8904_
*1172 _8867_
*1173 _8903_
*1174 _8868_
*1175 _8915_
*1176 _8914_
*1177 _8902_
*1178 _8865_
*1179 _8873_
*1180 clk_bF_buf56
*1181 CLKBUF1_insert51
*1182 _13474_
*1183 _13476_
*1184 _13477_
*1185 _13478_
*1186 _13459_
*1187 _13460_
*1188 _13472_
*1189 _13441_
*1190 _13471_
*1191 clk_bF_buf57
*1192 CLKBUF1_insert50
*1193 _13490_
*1194 _12555_
*1195 _13489_
*1196 _13488_
*1197 _13495_
*1198 _13492_
*1199 _13483_
*1200 _13493_
*1201 _13484_
*1202 clk_bF_buf58
*1203 CLKBUF1_insert49
*1204 _14515_
*1205 _8842_
*1206 _7947_
*1207 _7988_
*1208 _7941_
*1209 _7948_
*1210 _7987_
*1211 _7943_
*1212 _7944_
*1213 clk_bF_buf59
*1214 CLKBUF1_insert48
*1215 _11635_
*1216 _11653_
*1217 _11628_
*1218 _11674_
*1219 _11666_
*1220 _11657_
*1221 _11659_
*1222 _11627_
*1223 _11651_
*1224 clk_bF_buf60
*1225 CLKBUF1_insert47
*1226 _12585_
*1227 _12574_
*1228 _12586_
*1229 _12576_
*1230 _12575_
*1231 _12590_
*1232 _12577_
*1233 _12592_
*1234 _12591_
*1235 clk_bF_buf61
*1236 CLKBUF1_insert46
*1237 _8863_
*1238 _8917_
*1239 _8918_
*1240 _8916_
*1241 _8919_
*1242 _8850_
*1243 _8861_
*1244 _8864_
*1245 _9832_
*1246 clk_bF_buf62
*1247 CLKBUF1_insert45
*1248 _13429_
*1249 _13432_
*1250 _13442_
*1251 _13428_
*1252 _13458_
*1253 _13496_
*1254 _13444_
*1255 _13443_
*1256 _13431_
*1257 clk_bF_buf63
*1258 CLKBUF1_insert44
*1259 _9822_
*1260 _9818_
*1261 _9842_
*1262 _9843_
*1263 _9764_
*1264 _9816_
*1265 _9838_
*1266 _9767_
*1267 _9765_
*1268 clk_bF_buf64
*1269 CLKBUF1_insert43
*1270 _14533_
*1271 _14545_
*1272 _14530_
*1273 _14531_
*1274 _14546_
*1275 _14547_
*1276 _14535_
*1277 _14526_
*1278 _14529_
*1279 clk_bF_buf65
*1280 CLKBUF1_insert42
*1281 _14183_
*1282 _14181_
*1283 _14176_
*1284 _14180_
*1285 _14178_
*1286 _14209_
*1287 _14179_
*1288 _14187_
*1289 _14177_
*1290 clk_bF_buf66
*1291 CLKBUF1_insert41
*1292 _10707_
*1293 _10704_
*1294 _10706_
*1295 _10705_
*1296 _10708_
*1297 _7989_
*1298 _10766_
*1299 _10765_
*1300 _10764_
*1301 clk_bF_buf67
*1302 CLKBUF1_insert40
*1303 _14898_
*1304 _14877_
*1305 _14884_
*1306 _14876_
*1307 _14885_
*1308 _14879_
*1309 _14891_
*1310 _14878_
*1311 _14880_
*1312 clk_bF_buf68
*1313 CLKBUF1_insert39
*1314 _8913_
*1315 _8901_
*1316 _8874_
*1317 _9837_
*1318 _8875_
*1319 _8876_
*1320 _9796_
*1321 _7942_
*1322 _9794_
*1323 clk_bF_buf69
*1324 CLKBUF1_insert38
*1325 _11684_
*1326 _11639_
*1327 _11641_
*1328 _11637_
*1329 _11647_
*1330 _11648_
*1331 _11646_
*1332 _11681_
*1333 _11638_
*1334 clk_bF_buf70
*1335 CLKBUF1_insert37
*1336 _12552_
*1337 _12556_
*1338 _12554_
*1339 _12557_
*1340 _12558_
*1341 _12581_
*1342 _12582_
*1343 _12578_
*1344 _12573_
*1345 clk_bF_buf71
*1346 CLKBUF1_insert36
*1347 _8879_
*1348 _8857_
*1349 _8891_
*1350 _8841_
*1351 _8859_
*1352 _8892_
*1353 _8853_
*1354 _8845_
*1355 _8848_
*1356 clk_bF_buf72
*1357 CLKBUF1_insert35
*1358 _14907_
*1359 _14875_
*1360 _14906_
*1361 _14897_
*1362 _14905_
*1363 _14893_
*1364 _14894_
*1365 _14895_
*1366 _14892_
*1367 clk_bF_buf73
*1368 CLKBUF1_insert34
*1369 _14517_
*1370 _14523_
*1371 _14522_
*1372 _14520_
*1373 _14508_
*1374 _14504_
*1375 _14521_
*1376 _14506_
*1377 _10719_
*1378 clk_bF_buf74
*1379 CLKBUF1_insert33
*1380 _11671_
*1381 _11624_
*1382 _11617_
*1383 _11621_
*1384 _11616_
*1385 _11667_
*1386 _11668_
*1387 _11661_
*1388 _11672_
*1389 clk_bF_buf75
*1390 CLKBUF1_insert32
*1391 _14166_
*1392 _14160_
*1393 _14163_
*1394 _14162_
*1395 _11643_
*1396 _14164_
*1397 _11644_
*1398 _11645_
*1399 _11677_
*1400 clk_bF_buf76
*1401 CLKBUF1_insert31
*1402 _9815_
*1403 _9821_
*1404 _9833_
*1405 _9827_
*1406 _9828_
*1407 _9792_
*1408 _9824_
*1409 _9826_
*1410 _9834_
*1411 clk_bF_buf77
*1412 CLKBUF1_insert30
*1413 _13449_
*1414 _13451_
*1415 _13447_
*1416 _13448_
*1417 _13445_
*1418 _13439_
*1419 _13446_
*1420 _13452_
*1421 _13450_
*1422 clk_bF_buf78
*1423 CLKBUF1_insert29
*1424 _7935_
*1425 _7991_
*1426 _7990_
*1427 _10715_
*1428 _10759_
*1429 _10760_
*1430 _7984_
*1431 _7981_
*1432 _7983_
*1433 _2741_
*1434 _10000_
*1435 _10001_
*1436 _10119_
*1437 _10068_
*1438 _10118_
*1439 _10187_
*1440 _10203_
*1441 _10163_
*1442 _10278_
*1443 _10368_
*1444 _2670_
*1445 _9926_
*1446 _10455_
*1447 _10227_
*1448 _9927_
*1449 _10342_
*1450 _10446_
*1451 _10424_
*1452 _10409_
*1453 _10322_
*1454 _10300_
*1455 _2606_
*1456 _9856_
*1457 _9857_
*1458 _10623_
*1459 _9900_
*1460 _10618_
*1461 _10605_
*1462 _9892_
*1463 _9865_
*1464 _9874_
*1465 _9883_
*1466 _3444_
*1467 _10780_
*1468 _11542_
*1469 _11529_
*1470 _10824_
*1471 _11547_
*1472 _10816_
*1473 _10781_
*1474 _10789_
*1475 _10807_
*1476 _10798_
*1477 _3508_
*1478 _10850_
*1479 _11348_
*1480 _11246_
*1481 _11266_
*1482 _11333_
*1483 _11370_
*1484 _11379_
*1485 _11151_
*1486 _10851_
*1487 _11224_
*1488 _3579_
*1489 _10924_
*1490 _11202_
*1491 _11127_
*1492 _11043_
*1493 _10925_
*1494 _11111_
*1495 _11087_
*1496 _10992_
*1497 _11042_
*1498 _11292_
*1499 _4282_
*1500 _11704_
*1501 _12453_
*1502 _12466_
*1503 _12471_
*1504 _11705_
*1505 _11748_
*1506 _11740_
*1507 _11713_
*1508 _11731_
*1509 _11722_
*1510 _4346_
*1511 _11774_
*1512 _12170_
*1513 _12148_
*1514 _12190_
*1515 _12257_
*1516 _12294_
*1517 _12303_
*1518 _12075_
*1519 _11775_
*1520 _12272_
*1521 _4417_
*1522 _11848_
*1523 _11966_
*1524 _11916_
*1525 _12011_
*1526 _12035_
*1527 _12051_
*1528 _11967_
*1529 _11849_
*1530 _12126_
*1531 _12216_
*1532 \genblk1[6]_u_ce_LoadCtl\[4]
*1533 _13499_
*1534 _12653_
*1535 _12644_
*1536 _12652_
*1537 _12643_
*1538 _12661_
*1539 _12619_
*1540 _13500_
*1541 _12626_
*1542 _12625_
*1543 _5172_
*1544 _12691_
*1545 _13220_
*1546 _13189_
*1547 _13107_
*1548 _12992_
*1549 _13174_
*1550 _13087_
*1551 _13211_
*1552 _13065_
*1553 _12692_
*1554 _5243_
*1555 _12765_
*1556 _12833_
*1557 _12883_
*1558 _12884_
*1559 _12928_
*1560 _12952_
*1561 _12968_
*1562 _13133_
*1563 _13043_
*1564 _12766_
*1565 _5888_
*1566 _13505_
*1567 _14099_
*1568 _13539_
*1569 _14136_
*1570 _14111_
*1571 _14107_
*1572 _14108_
*1573 _14139_
*1574 _13511_
*1575 _13512_
*1576 _5947_
*1577 _13568_
*1578 _13984_
*1579 _13869_
*1580 _13569_
*1581 _14051_
*1582 _14097_
*1583 _14066_
*1584 _14088_
*1585 _13964_
*1586 _13942_
*1587 _6018_
*1588 _13642_
*1589 _13761_
*1590 _13760_
*1591 _13643_
*1592 _13710_
*1593 _13805_
*1594 _13845_
*1595 _13829_
*1596 _14010_
*1597 _13920_
*1598 _92_
*1599 _7084_
*1600 _7833_
*1601 _7128_
*1602 _7120_
*1603 _7846_
*1604 _7851_
*1605 _7111_
*1606 _7102_
*1607 _7085_
*1608 _7093_
*1609 _156_
*1610 _7154_
*1611 _7550_
*1612 _7652_
*1613 _7637_
*1614 _7683_
*1615 _7455_
*1616 _7155_
*1617 _7674_
*1618 _7528_
*1619 _7570_
*1620 _227_
*1621 _7228_
*1622 _7296_
*1623 _7415_
*1624 _7431_
*1625 _7391_
*1626 _7229_
*1627 _7347_
*1628 _7346_
*1629 _7506_
*1630 _7596_
*1631 _930_
*1632 _8008_
*1633 _8770_
*1634 _8775_
*1635 _8009_
*1636 _8757_
*1637 _8035_
*1638 _8052_
*1639 _8026_
*1640 _8044_
*1641 _8017_
*1642 _994_
*1643 _8078_
*1644 _8494_
*1645 _8079_
*1646 _8474_
*1647 _8379_
*1648 _8452_
*1649 _8576_
*1650 _8561_
*1651 _8607_
*1652 _8598_
*1653 _1065_
*1654 _8152_
*1655 _8270_
*1656 _8220_
*1657 _8430_
*1658 _8271_
*1659 _8315_
*1660 _8355_
*1661 _8339_
*1662 _8153_
*1663 _8520_
*1664 _1768_
*1665 _8932_
*1666 _9694_
*1667 _9699_
*1668 _8933_
*1669 _8941_
*1670 _9681_
*1671 _8976_
*1672 _8959_
*1673 _8968_
*1674 _8950_
*1675 _1832_
*1676 _9002_
*1677 _9418_
*1678 _9531_
*1679 _9485_
*1680 _9500_
*1681 _9303_
*1682 _9003_
*1683 _9376_
*1684 _9398_
*1685 _9522_
*1686 _1903_
*1687 _9076_
*1688 _9354_
*1689 _9144_
*1690 _9077_
*1691 _9195_
*1692 _9239_
*1693 _9263_
*1694 _9279_
*1695 _9444_
*1696 _9194_
*1697 clk
*1698 CLKBUF1_insert384
*1699 CLKBUF1_insert388
*1700 CLKBUF1_insert391
*1701 CLKBUF1_insert385
*1702 CLKBUF1_insert386
*1703 CLKBUF1_insert389
*1704 CLKBUF1_insert390
*1705 CLKBUF1_insert387
*1706 _1848__bF_buf1
*1707 BUFX2_insert338
*1708 _9598_
*1709 _9659_
*1710 _9660_
*1711 _9672_
*1712 _9066_
*1713 _9035_
*1714 _9321_
*1715 _9094_
*1716 _1848__bF_buf2
*1717 BUFX2_insert337
*1718 _9386_
*1719 _9410_
*1720 _9407_
*1721 _9526_
*1722 _9425_
*1723 _9455_
*1724 _9366_
*1725 _9345_
*1726 _1848__bF_buf3
*1727 BUFX2_insert336
*1728 _9574_
*1729 _9619_
*1730 _9741_
*1731 _9600_
*1732 _9586_
*1733 _9633_
*1734 _9632_
*1735 _9546_
*1736 _1848__bF_buf4
*1737 BUFX2_insert335
*1738 _9135_
*1739 _9155_
*1740 _9115_
*1741 _9182_
*1742 _9187_
*1743 _9158_
*1744 _9184_
*1745 _9153_
*1746 _1848__bF_buf5
*1747 BUFX2_insert334
*1748 _9206_
*1749 _9211_
*1750 _9230_
*1751 _9234_
*1752 _9195_
*1753 _9247_
*1754 _9252_
*1755 _9528_
*1756 _3524__bF_buf1
*1757 BUFX2_insert328
*1758 _11193_
*1759 _11214_
*1760 _11234_
*1761 _11374_
*1762 _11169_
*1763 _11359_
*1764 _11324_
*1765 _11258_
*1766 _3524__bF_buf2
*1767 BUFX2_insert327
*1768 _11376_
*1769 _10914_
*1770 _10883_
*1771 _11446_
*1772 _11448_
*1773 _11422_
*1774 _11467_
*1775 _11043_
*1776 _3524__bF_buf3
*1777 BUFX2_insert326
*1778 _11078_
*1779 _10942_
*1780 _10963_
*1781 _10983_
*1782 _11003_
*1783 _11082_
*1784 _11095_
*1785 _11100_
*1786 _3524__bF_buf4
*1787 BUFX2_insert325
*1788 _11589_
*1789 _11481_
*1790 _11480_
*1791 _11508_
*1792 _11507_
*1793 _11394_
*1794 _11434_
*1795 _11520_
*1796 _3524__bF_buf5
*1797 BUFX2_insert324
*1798 _11301_
*1799 _11327_
*1800 _11340_
*1801 _11323_
*1802 _11306_
*1803 _11303_
*1804 _11273_
*1805 _11255_
*1806 _2686__bF_buf1
*1807 BUFX2_insert318
*1808 _10583_
*1809 _10584_
*1810 _10498_
*1811 _10543_
*1812 _10510_
*1813 _10556_
*1814 _10557_
*1815 _10470_
*1816 _2686__bF_buf2
*1817 BUFX2_insert317
*1818 _10108_
*1819 _10059_
*1820 _10039_
*1821 _10018_
*1822 _10079_
*1823 _10077_
*1824 _10111_
*1825 _10082_
*1826 _2686__bF_buf3
*1827 BUFX2_insert316
*1828 _10290_
*1829 _10269_
*1830 _10245_
*1831 _10310_
*1832 _10377_
*1833 _10349_
*1834 _10379_
*1835 _10382_
*1836 _2686__bF_buf4
*1837 BUFX2_insert315
*1838 _10452_
*1839 _10171_
*1840 _10176_
*1841 _10154_
*1842 _10135_
*1843 _10158_
*1844 _10130_
*1845 _10106_
*1846 _2686__bF_buf5
*1847 BUFX2_insert314
*1848 _10334_
*1849 _10331_
*1850 _10450_
*1851 _10435_
*1852 _10416_
*1853 _10403_
*1854 _10399_
*1855 _10400_
*1856 _4362__bF_buf1
*1857 BUFX2_insert298
*1858 _12138_
*1859 _12117_
*1860 _12230_
*1861 _12227_
*1862 _12197_
*1863 _12179_
*1864 _12182_
*1865 _12158_
*1866 _4362__bF_buf2
*1867 BUFX2_insert297
*1868 _12283_
*1869 _12300_
*1870 _12264_
*1871 _12247_
*1872 _12251_
*1873 _12248_
*1874 _12225_
*1875 _12093_
*1876 _4362__bF_buf3
*1877 BUFX2_insert296
*1878 _11954_
*1879 _12002_
*1880 _11983_
*1881 _11866_
*1882 _11978_
*1883 _12006_
*1884 _12019_
*1885 _12024_
*1886 _4362__bF_buf4
*1887 BUFX2_insert295
*1888 _12431_
*1889 _12444_
*1890 _12432_
*1891 _12404_
*1892 _12358_
*1893 _12318_
*1894 _12405_
*1895 _12391_
*1896 _4362__bF_buf5
*1897 BUFX2_insert294
*1898 _12513_
*1899 _11967_
*1900 _11807_
*1901 _11838_
*1902 _12298_
*1903 _12370_
*1904 _12372_
*1905 _12346_
*1906 _172__bF_buf1
*1907 BUFX2_insert278
*1908 _7399_
*1909 _7404_
*1910 _7218_
*1911 _7382_
*1912 _7386_
*1913 _7363_
*1914 _7358_
*1915 _7246_
*1916 _172__bF_buf2
*1917 BUFX2_insert277
*1918 _7334_
*1919 _7287_
*1920 _7267_
*1921 _7307_
*1922 _7336_
*1923 _7305_
*1924 _7310_
*1925 _7339_
*1926 _172__bF_buf3
*1927 BUFX2_insert276
*1928 _7680_
*1929 _7678_
*1930 _7893_
*1931 _7750_
*1932 _7771_
*1933 _7811_
*1934 _7812_
*1935 _7752_
*1936 _172__bF_buf4
*1937 BUFX2_insert275
*1938 _7610_
*1939 _7607_
*1940 _7577_
*1941 _7605_
*1942 _7628_
*1943 _7538_
*1944 _7559_
*1945 _7562_
*1946 _172__bF_buf5
*1947 BUFX2_insert274
*1948 _7187_
*1949 _7726_
*1950 _7824_
*1951 _7698_
*1952 _7738_
*1953 _7784_
*1954 _7785_
*1955 _7347_
*1956 _5188__bF_buf1
*1957 BUFX2_insert262
*1958 _12884_
*1959 _12941_
*1960 _12936_
*1961 _13217_
*1962 _12923_
*1963 _12919_
*1964 _12900_
*1965 _12895_
*1966 _5188__bF_buf2
*1967 BUFX2_insert261
*1968 _13181_
*1969 _13200_
*1970 _13165_
*1971 _13142_
*1972 _13164_
*1973 _13168_
*1974 _13215_
*1975 _13147_
*1976 _5188__bF_buf3
*1977 BUFX2_insert260
*1978 _13099_
*1979 _13075_
*1980 _13010_
*1981 _13114_
*1982 _13144_
*1983 _13096_
*1984 _13055_
*1985 _13034_
*1986 _5188__bF_buf4
*1987 BUFX2_insert259
*1988 _13339_
*1989 _13328_
*1990 _13327_
*1991 _13405_
*1992 _13230_
*1993 _13306_
*1994 _13305_
*1995 _13266_
*1996 _5188__bF_buf5
*1997 BUFX2_insert258
*1998 _12847_
*1999 _12824_
*2000 _12804_
*2001 _12844_
*2002 _12871_
*2003 _12876_
*2004 _12873_
*2005 _12842_
*2006 clk_bF_buf0
*2007 CLKBUF1_insert107
*2008 _13455_
*2009 _14186_
*2010 _14189_
*2011 _14196_
*2012 _14184_
*2013 _14208_
*2014 _14197_
*2015 _14185_
*2016 clk_bF_buf1
*2017 CLKBUF1_insert106
*2018 _9817_
*2019 _9811_
*2020 _9809_
*2021 _9803_
*2022 _9806_
*2023 _9804_
*2024 _9810_
*2025 _9823_
*2026 clk_bF_buf2
*2027 CLKBUF1_insert105
*2028 _9776_
*2029 _9771_
*2030 _9781_
*2031 _9769_
*2032 _7925_
*2033 _7921_
*2034 _9774_
*2035 _9787_
*2036 clk_bF_buf3
*2037 CLKBUF1_insert104
*2038 _11680_
*2039 _8900_
*2040 _8899_
*2041 _8911_
*2042 _11679_
*2043 _8906_
*2044 _8908_
*2045 _8907_
*2046 clk_bF_buf4
*2047 CLKBUF1_insert103
*2048 _14511_
*2049 _14519_
*2050 _14510_
*2051 _14516_
*2052 _14518_
*2053 _10720_
*2054 _10714_
*2055 _10716_
*2056 _1010__bF_buf1
*2057 BUFX2_insert27
*2058 _8529_
*2059 _8170_
*2060 _8191_