* XSpice netlist created from SPICE and liberty sources by spi2xspice.py
*SPICE netlist created from verilog structural netlist module nco by vlog2Spice (qflow)
** Start of included library /usr/local/share/qflow/tech/etri050/etri050_stdcells.sp
* NGSPICE file created from khu_etri050_stdcells.ext - technology: scmos
** End of included library /usr/local/share/qflow/tech/etri050/etri050_stdcells.sp
.subckt nco a_vdd a_gnd a_Dout_0_ a_Dout_1_ a_Dout_2_ a_Dout_3_ a_Dout_4_ a_Dout_5_ a_Dout_6_ a_Dout_7_ a_Dout_8_ a_Dout_9_ a_Dout_10_ a_Dout_11_ a_En a_FCW_0_ a_FCW_1_ a_FCW_2_ a_FCW_3_ a_FCW_4_ a_FCW_5_ a_FCW_6_ a_FCW_7_ a_FCW_8_ a_FCW_9_ a_FCW_10_ a_FCW_11_ a_FCW_12_ a_FCW_13_ a_FCW_14_ a_FCW_15_ a_FCW_16_ a_FCW_17_ a_FCW_18_ a_FCW_19_ a_Vld a_clk a_selSign a_selXY
ACLKBUF1_insert391 [clk] clk_hier0_bF$buf0 d_lut_CLKBUF1
ACLKBUF1_insert390 [clk] clk_hier0_bF$buf1 d_lut_CLKBUF1
ACLKBUF1_insert389 [clk] clk_hier0_bF$buf2 d_lut_CLKBUF1
ACLKBUF1_insert388 [clk] clk_hier0_bF$buf3 d_lut_CLKBUF1
ACLKBUF1_insert387 [clk] clk_hier0_bF$buf4 d_lut_CLKBUF1
ACLKBUF1_insert386 [clk] clk_hier0_bF$buf5 d_lut_CLKBUF1
ACLKBUF1_insert385 [clk] clk_hier0_bF$buf6 d_lut_CLKBUF1
ACLKBUF1_insert384 [clk] clk_hier0_bF$buf7 d_lut_CLKBUF1
ABUFX2_insert383 [\genblk1_4_.u_ce.Vld\] \genblk1_4_.u_ce.Vld_bF$buf0\ d_lut_BUFX2
ABUFX2_insert382 [\genblk1_4_.u_ce.Vld\] \genblk1_4_.u_ce.Vld_bF$buf1\ d_lut_BUFX2
ABUFX2_insert381 [\genblk1_4_.u_ce.Vld\] \genblk1_4_.u_ce.Vld_bF$buf2\ d_lut_BUFX2
ABUFX2_insert380 [\genblk1_4_.u_ce.Vld\] \genblk1_4_.u_ce.Vld_bF$buf3\ d_lut_BUFX2
ABUFX2_insert379 [\genblk1_4_.u_ce.Vld\] \genblk1_4_.u_ce.Vld_bF$buf4\ d_lut_BUFX2
ABUFX2_insert378 [_973_] _973__bF$buf0 d_lut_BUFX2
ABUFX2_insert377 [_973_] _973__bF$buf1 d_lut_BUFX2
ABUFX2_insert376 [_973_] _973__bF$buf2 d_lut_BUFX2
ABUFX2_insert375 [_973_] _973__bF$buf3 d_lut_BUFX2
ABUFX2_insert374 [_973_] _973__bF$buf4 d_lut_BUFX2
ABUFX2_insert373 [_6833_] _6833__bF$buf0 d_lut_BUFX2
ABUFX2_insert372 [_6833_] _6833__bF$buf1 d_lut_BUFX2
ABUFX2_insert371 [_6833_] _6833__bF$buf2 d_lut_BUFX2
ABUFX2_insert370 [_6833_] _6833__bF$buf3 d_lut_BUFX2
ABUFX2_insert369 [_6833_] _6833__bF$buf4 d_lut_BUFX2
ABUFX2_insert368 [\genblk1_4_.u_ce.LoadCtl\_0_] \genblk1_4_.u_ce.LoadCtl_0_bF$buf0\ d_lut_BUFX2
ABUFX2_insert367 [\genblk1_4_.u_ce.LoadCtl\_0_] \genblk1_4_.u_ce.LoadCtl_0_bF$buf1\ d_lut_BUFX2
ABUFX2_insert366 [\genblk1_4_.u_ce.LoadCtl\_0_] \genblk1_4_.u_ce.LoadCtl_0_bF$buf2\ d_lut_BUFX2
ABUFX2_insert365 [\genblk1_4_.u_ce.LoadCtl\_0_] \genblk1_4_.u_ce.LoadCtl_0_bF$buf3\ d_lut_BUFX2
ABUFX2_insert364 [\genblk1_4_.u_ce.LoadCtl\_0_] \genblk1_4_.u_ce.LoadCtl_0_bF$buf4\ d_lut_BUFX2
ABUFX2_insert363 [\genblk1_0_.u_ce.LoadCtl\_0_] \genblk1_0_.u_ce.LoadCtl_0_bF$buf0\ d_lut_BUFX2
ABUFX2_insert362 [\genblk1_0_.u_ce.LoadCtl\_0_] \genblk1_0_.u_ce.LoadCtl_0_bF$buf1\ d_lut_BUFX2
ABUFX2_insert361 [\genblk1_0_.u_ce.LoadCtl\_0_] \genblk1_0_.u_ce.LoadCtl_0_bF$buf2\ d_lut_BUFX2
ABUFX2_insert360 [\genblk1_0_.u_ce.LoadCtl\_0_] \genblk1_0_.u_ce.LoadCtl_0_bF$buf3\ d_lut_BUFX2
ABUFX2_insert359 [\genblk1_0_.u_ce.LoadCtl\_0_] \genblk1_0_.u_ce.LoadCtl_0_bF$buf4\ d_lut_BUFX2
ABUFX2_insert358 [_5963_] _5963__bF$buf0 d_lut_BUFX2
ABUFX2_insert357 [_5963_] _5963__bF$buf1 d_lut_BUFX2
ABUFX2_insert356 [_5963_] _5963__bF$buf2 d_lut_BUFX2
ABUFX2_insert355 [_5963_] _5963__bF$buf3 d_lut_BUFX2
ABUFX2_insert354 [_5963_] _5963__bF$buf4 d_lut_BUFX2
ABUFX2_insert353 [_5963_] _5963__bF$buf5 d_lut_BUFX2
ABUFX2_insert352 [_5925_] _5925__bF$buf0 d_lut_BUFX2
ABUFX2_insert351 [_5925_] _5925__bF$buf1 d_lut_BUFX2
ABUFX2_insert350 [_5925_] _5925__bF$buf2 d_lut_BUFX2
ABUFX2_insert349 [_5925_] _5925__bF$buf3 d_lut_BUFX2
ABUFX2_insert348 [\genblk1_6_.u_ce.Vld\] \genblk1_6_.u_ce.Vld_bF$buf0\ d_lut_BUFX2
ABUFX2_insert347 [\genblk1_6_.u_ce.Vld\] \genblk1_6_.u_ce.Vld_bF$buf1\ d_lut_BUFX2
ABUFX2_insert346 [\genblk1_6_.u_ce.Vld\] \genblk1_6_.u_ce.Vld_bF$buf2\ d_lut_BUFX2
ABUFX2_insert345 [\genblk1_6_.u_ce.Vld\] \genblk1_6_.u_ce.Vld_bF$buf3\ d_lut_BUFX2
ABUFX2_insert344 [_1810_] _1810__bF$buf0 d_lut_BUFX2
ABUFX2_insert343 [_1810_] _1810__bF$buf1 d_lut_BUFX2
ABUFX2_insert342 [_1810_] _1810__bF$buf2 d_lut_BUFX2
ABUFX2_insert341 [_1810_] _1810__bF$buf3 d_lut_BUFX2
ABUFX2_insert340 [_1810_] _1810__bF$buf4 d_lut_BUFX2
ABUFX2_insert339 [_1848_] _1848__bF$buf0 d_lut_BUFX2
ABUFX2_insert338 [_1848_] _1848__bF$buf1 d_lut_BUFX2
ABUFX2_insert337 [_1848_] _1848__bF$buf2 d_lut_BUFX2
ABUFX2_insert336 [_1848_] _1848__bF$buf3 d_lut_BUFX2
ABUFX2_insert335 [_1848_] _1848__bF$buf4 d_lut_BUFX2
ABUFX2_insert334 [_1848_] _1848__bF$buf5 d_lut_BUFX2
ABUFX2_insert333 [\genblk1_4_.u_ce.Ain12b\_11_] \genblk1_4_.u_ce.Ain12b_11_bF$buf0\ d_lut_BUFX2
ABUFX2_insert332 [\genblk1_4_.u_ce.Ain12b\_11_] \genblk1_4_.u_ce.Ain12b_11_bF$buf1\ d_lut_BUFX2
ABUFX2_insert331 [\genblk1_4_.u_ce.Ain12b\_11_] \genblk1_4_.u_ce.Ain12b_11_bF$buf2\ d_lut_BUFX2
ABUFX2_insert330 [\genblk1_4_.u_ce.Ain12b\_11_] \genblk1_4_.u_ce.Ain12b_11_bF$buf3\ d_lut_BUFX2
ABUFX2_insert329 [_3524_] _3524__bF$buf0 d_lut_BUFX2
ABUFX2_insert328 [_3524_] _3524__bF$buf1 d_lut_BUFX2
ABUFX2_insert327 [_3524_] _3524__bF$buf2 d_lut_BUFX2
ABUFX2_insert326 [_3524_] _3524__bF$buf3 d_lut_BUFX2
ABUFX2_insert325 [_3524_] _3524__bF$buf4 d_lut_BUFX2
ABUFX2_insert324 [_3524_] _3524__bF$buf5 d_lut_BUFX2
ABUFX2_insert323 [\genblk1_0_.u_ce.Ain12b\_11_] \genblk1_0_.u_ce.Ain12b_11_bF$buf0\ d_lut_BUFX2
ABUFX2_insert322 [\genblk1_0_.u_ce.Ain12b\_11_] \genblk1_0_.u_ce.Ain12b_11_bF$buf1\ d_lut_BUFX2
ABUFX2_insert321 [\genblk1_0_.u_ce.Ain12b\_11_] \genblk1_0_.u_ce.Ain12b_11_bF$buf2\ d_lut_BUFX2
ABUFX2_insert320 [\genblk1_0_.u_ce.Ain12b\_11_] \genblk1_0_.u_ce.Ain12b_11_bF$buf3\ d_lut_BUFX2
ABUFX2_insert319 [_2686_] _2686__bF$buf0 d_lut_BUFX2
ABUFX2_insert318 [_2686_] _2686__bF$buf1 d_lut_BUFX2
ABUFX2_insert317 [_2686_] _2686__bF$buf2 d_lut_BUFX2
ABUFX2_insert316 [_2686_] _2686__bF$buf3 d_lut_BUFX2
ABUFX2_insert315 [_2686_] _2686__bF$buf4 d_lut_BUFX2
ABUFX2_insert314 [_2686_] _2686__bF$buf5 d_lut_BUFX2
ABUFX2_insert313 [_2648_] _2648__bF$buf0 d_lut_BUFX2
ABUFX2_insert312 [_2648_] _2648__bF$buf1 d_lut_BUFX2
ABUFX2_insert311 [_2648_] _2648__bF$buf2 d_lut_BUFX2
ABUFX2_insert310 [_2648_] _2648__bF$buf3 d_lut_BUFX2
ABUFX2_insert309 [_2648_] _2648__bF$buf4 d_lut_BUFX2
ABUFX2_insert308 [\u_ot.LoadCtl\_6_] \u_ot.LoadCtl_6_bF$buf0\ d_lut_BUFX2
ABUFX2_insert307 [\u_ot.LoadCtl\_6_] \u_ot.LoadCtl_6_bF$buf1\ d_lut_BUFX2
ABUFX2_insert306 [\u_ot.LoadCtl\_6_] \u_ot.LoadCtl_6_bF$buf2\ d_lut_BUFX2
ABUFX2_insert305 [\u_ot.LoadCtl\_6_] \u_ot.LoadCtl_6_bF$buf3\ d_lut_BUFX2
ABUFX2_insert304 [\u_ot.LoadCtl\_6_] \u_ot.LoadCtl_6_bF$buf4\ d_lut_BUFX2
ABUFX2_insert303 [\genblk1_7_.u_ce.LoadCtl\_0_] \genblk1_7_.u_ce.LoadCtl_0_bF$buf0\ d_lut_BUFX2
ABUFX2_insert302 [\genblk1_7_.u_ce.LoadCtl\_0_] \genblk1_7_.u_ce.LoadCtl_0_bF$buf1\ d_lut_BUFX2
ABUFX2_insert301 [\genblk1_7_.u_ce.LoadCtl\_0_] \genblk1_7_.u_ce.LoadCtl_0_bF$buf2\ d_lut_BUFX2
ABUFX2_insert300 [\genblk1_7_.u_ce.LoadCtl\_0_] \genblk1_7_.u_ce.LoadCtl_0_bF$buf3\ d_lut_BUFX2
ABUFX2_insert299 [_4362_] _4362__bF$buf0 d_lut_BUFX2
ABUFX2_insert298 [_4362_] _4362__bF$buf1 d_lut_BUFX2
ABUFX2_insert297 [_4362_] _4362__bF$buf2 d_lut_BUFX2
ABUFX2_insert296 [_4362_] _4362__bF$buf3 d_lut_BUFX2
ABUFX2_insert295 [_4362_] _4362__bF$buf4 d_lut_BUFX2
ABUFX2_insert294 [_4362_] _4362__bF$buf5 d_lut_BUFX2
ABUFX2_insert293 [_5949_] _5949__bF$buf0 d_lut_BUFX2
ABUFX2_insert292 [_5949_] _5949__bF$buf1 d_lut_BUFX2
ABUFX2_insert291 [_5949_] _5949__bF$buf2 d_lut_BUFX2
ABUFX2_insert290 [_5949_] _5949__bF$buf3 d_lut_BUFX2
ABUFX2_insert289 [_4324_] _4324__bF$buf0 d_lut_BUFX2
ABUFX2_insert288 [_4324_] _4324__bF$buf1 d_lut_BUFX2
ABUFX2_insert287 [_4324_] _4324__bF$buf2 d_lut_BUFX2
ABUFX2_insert286 [_4324_] _4324__bF$buf3 d_lut_BUFX2
ABUFX2_insert285 [_4324_] _4324__bF$buf4 d_lut_BUFX2
ABUFX2_insert284 [_5150_] _5150__bF$buf0 d_lut_BUFX2
ABUFX2_insert283 [_5150_] _5150__bF$buf1 d_lut_BUFX2
ABUFX2_insert282 [_5150_] _5150__bF$buf2 d_lut_BUFX2
ABUFX2_insert281 [_5150_] _5150__bF$buf3 d_lut_BUFX2
ABUFX2_insert280 [_5150_] _5150__bF$buf4 d_lut_BUFX2
ABUFX2_insert279 [_172_] _172__bF$buf0 d_lut_BUFX2
ABUFX2_insert278 [_172_] _172__bF$buf1 d_lut_BUFX2
ABUFX2_insert277 [_172_] _172__bF$buf2 d_lut_BUFX2
ABUFX2_insert276 [_172_] _172__bF$buf3 d_lut_BUFX2
ABUFX2_insert275 [_172_] _172__bF$buf4 d_lut_BUFX2
ABUFX2_insert274 [_172_] _172__bF$buf5 d_lut_BUFX2
ABUFX2_insert273 [_134_] _134__bF$buf0 d_lut_BUFX2
ABUFX2_insert272 [_134_] _134__bF$buf1 d_lut_BUFX2
ABUFX2_insert271 [_134_] _134__bF$buf2 d_lut_BUFX2
ABUFX2_insert270 [_134_] _134__bF$buf3 d_lut_BUFX2
ABUFX2_insert269 [_134_] _134__bF$buf4 d_lut_BUFX2
ABUFX2_insert268 [_1834_] _1834__bF$buf0 d_lut_BUFX2
ABUFX2_insert267 [_1834_] _1834__bF$buf1 d_lut_BUFX2
ABUFX2_insert266 [_1834_] _1834__bF$buf2 d_lut_BUFX2
ABUFX2_insert265 [_1834_] _1834__bF$buf3 d_lut_BUFX2
ABUFX2_insert264 [_1834_] _1834__bF$buf4 d_lut_BUFX2
ABUFX2_insert263 [_5188_] _5188__bF$buf0 d_lut_BUFX2
ABUFX2_insert262 [_5188_] _5188__bF$buf1 d_lut_BUFX2
ABUFX2_insert261 [_5188_] _5188__bF$buf2 d_lut_BUFX2
ABUFX2_insert260 [_5188_] _5188__bF$buf3 d_lut_BUFX2
ABUFX2_insert259 [_5188_] _5188__bF$buf4 d_lut_BUFX2
ABUFX2_insert258 [_5188_] _5188__bF$buf5 d_lut_BUFX2
ABUFX2_insert257 [\genblk1_3_.u_ce.LoadCtl\_0_] \genblk1_3_.u_ce.LoadCtl_0_bF$buf0\ d_lut_BUFX2
ABUFX2_insert256 [\genblk1_3_.u_ce.LoadCtl\_0_] \genblk1_3_.u_ce.LoadCtl_0_bF$buf1\ d_lut_BUFX2
ABUFX2_insert255 [\genblk1_3_.u_ce.LoadCtl\_0_] \genblk1_3_.u_ce.LoadCtl_0_bF$buf2\ d_lut_BUFX2
ABUFX2_insert254 [\genblk1_3_.u_ce.LoadCtl\_0_] \genblk1_3_.u_ce.LoadCtl_0_bF$buf3\ d_lut_BUFX2
ABUFX2_insert253 [\genblk1_3_.u_ce.LoadCtl\_0_] \genblk1_3_.u_ce.LoadCtl_0_bF$buf4\ d_lut_BUFX2
ABUFX2_insert252 [_3486_] _3486__bF$buf0 d_lut_BUFX2
ABUFX2_insert251 [_3486_] _3486__bF$buf1 d_lut_BUFX2
ABUFX2_insert250 [_3486_] _3486__bF$buf2 d_lut_BUFX2
ABUFX2_insert249 [_3486_] _3486__bF$buf3 d_lut_BUFX2
ABUFX2_insert248 [_3486_] _3486__bF$buf4 d_lut_BUFX2
ABUFX2_insert247 [\genblk1_2_.u_ce.LoadCtl\_0_] \genblk1_2_.u_ce.LoadCtl_0_bF$buf0\ d_lut_BUFX2
ABUFX2_insert246 [\genblk1_2_.u_ce.LoadCtl\_0_] \genblk1_2_.u_ce.LoadCtl_0_bF$buf1\ d_lut_BUFX2
ABUFX2_insert245 [\genblk1_2_.u_ce.LoadCtl\_0_] \genblk1_2_.u_ce.LoadCtl_0_bF$buf2\ d_lut_BUFX2
ABUFX2_insert244 [\genblk1_2_.u_ce.LoadCtl\_0_] \genblk1_2_.u_ce.LoadCtl_0_bF$buf3\ d_lut_BUFX2
ABUFX2_insert243 [\genblk1_2_.u_ce.LoadCtl\_0_] \genblk1_2_.u_ce.LoadCtl_0_bF$buf4\ d_lut_BUFX2
ABUFX2_insert242 [_3510_] _3510__bF$buf0 d_lut_BUFX2
ABUFX2_insert241 [_3510_] _3510__bF$buf1 d_lut_BUFX2
ABUFX2_insert240 [_3510_] _3510__bF$buf2 d_lut_BUFX2
ABUFX2_insert239 [_3510_] _3510__bF$buf3 d_lut_BUFX2
ABUFX2_insert238 [_3510_] _3510__bF$buf4 d_lut_BUFX2
ABUFX2_insert237 [\genblk1_0_.u_ce.Rdy\] \genblk1_0_.u_ce.Rdy_bF$buf0\ d_lut_BUFX2
ABUFX2_insert236 [\genblk1_0_.u_ce.Rdy\] \genblk1_0_.u_ce.Rdy_bF$buf1\ d_lut_BUFX2
ABUFX2_insert235 [\genblk1_0_.u_ce.Rdy\] \genblk1_0_.u_ce.Rdy_bF$buf2\ d_lut_BUFX2
ABUFX2_insert234 [\genblk1_0_.u_ce.Rdy\] \genblk1_0_.u_ce.Rdy_bF$buf3\ d_lut_BUFX2
ABUFX2_insert233 [\genblk1_0_.u_ce.Rdy\] \genblk1_0_.u_ce.Rdy_bF$buf4\ d_lut_BUFX2
ABUFX2_insert232 [_5926_] _5926__bF$buf0 d_lut_BUFX2
ABUFX2_insert231 [_5926_] _5926__bF$buf1 d_lut_BUFX2
ABUFX2_insert230 [_5926_] _5926__bF$buf2 d_lut_BUFX2
ABUFX2_insert229 [_5926_] _5926__bF$buf3 d_lut_BUFX2
ABUFX2_insert228 [_5926_] _5926__bF$buf4 d_lut_BUFX2
ABUFX2_insert227 [\genblk1_7_.u_ce.Ain12b\_11_] \genblk1_7_.u_ce.Ain12b_11_bF$buf0\ d_lut_BUFX2
ABUFX2_insert226 [\genblk1_7_.u_ce.Ain12b\_11_] \genblk1_7_.u_ce.Ain12b_11_bF$buf1\ d_lut_BUFX2
ABUFX2_insert225 [\genblk1_7_.u_ce.Ain12b\_11_] \genblk1_7_.u_ce.Ain12b_11_bF$buf2\ d_lut_BUFX2
ABUFX2_insert224 [\genblk1_7_.u_ce.Ain12b\_11_] \genblk1_7_.u_ce.Ain12b_11_bF$buf3\ d_lut_BUFX2
ABUFX2_insert223 [_2672_] _2672__bF$buf0 d_lut_BUFX2
ABUFX2_insert222 [_2672_] _2672__bF$buf1 d_lut_BUFX2
ABUFX2_insert221 [_2672_] _2672__bF$buf2 d_lut_BUFX2
ABUFX2_insert220 [_2672_] _2672__bF$buf3 d_lut_BUFX2
ABUFX2_insert219 [_2672_] _2672__bF$buf4 d_lut_BUFX2
ABUFX2_insert218 [\genblk1_1_.u_ce.Vld\] \genblk1_1_.u_ce.Vld_bF$buf0\ d_lut_BUFX2
ABUFX2_insert217 [\genblk1_1_.u_ce.Vld\] \genblk1_1_.u_ce.Vld_bF$buf1\ d_lut_BUFX2
ABUFX2_insert216 [\genblk1_1_.u_ce.Vld\] \genblk1_1_.u_ce.Vld_bF$buf2\ d_lut_BUFX2
ABUFX2_insert215 [\genblk1_1_.u_ce.Vld\] \genblk1_1_.u_ce.Vld_bF$buf3\ d_lut_BUFX2
ABUFX2_insert214 [\genblk1_1_.u_ce.Vld\] \genblk1_1_.u_ce.Vld_bF$buf4\ d_lut_BUFX2
ABUFX2_insert213 [_1811_] _1811__bF$buf0 d_lut_BUFX2
ABUFX2_insert212 [_1811_] _1811__bF$buf1 d_lut_BUFX2
ABUFX2_insert211 [_1811_] _1811__bF$buf2 d_lut_BUFX2
ABUFX2_insert210 [_1811_] _1811__bF$buf3 d_lut_BUFX2
ABUFX2_insert209 [_1811_] _1811__bF$buf4 d_lut_BUFX2
ABUFX2_insert208 [\genblk1_3_.u_ce.Ain12b\_11_] \genblk1_3_.u_ce.Ain12b_11_bF$buf0\ d_lut_BUFX2
ABUFX2_insert207 [\genblk1_3_.u_ce.Ain12b\_11_] \genblk1_3_.u_ce.Ain12b_11_bF$buf1\ d_lut_BUFX2
ABUFX2_insert206 [\genblk1_3_.u_ce.Ain12b\_11_] \genblk1_3_.u_ce.Ain12b_11_bF$buf2\ d_lut_BUFX2
ABUFX2_insert205 [\genblk1_3_.u_ce.Ain12b\_11_] \genblk1_3_.u_ce.Ain12b_11_bF$buf3\ d_lut_BUFX2
ABUFX2_insert204 [_4348_] _4348__bF$buf0 d_lut_BUFX2
ABUFX2_insert203 [_4348_] _4348__bF$buf1 d_lut_BUFX2
ABUFX2_insert202 [_4348_] _4348__bF$buf2 d_lut_BUFX2
ABUFX2_insert201 [_4348_] _4348__bF$buf3 d_lut_BUFX2
ABUFX2_insert200 [_4348_] _4348__bF$buf4 d_lut_BUFX2
ABUFX2_insert199 [\genblk1_2_.u_ce.Ain12b\_11_] \genblk1_2_.u_ce.Ain12b_11_bF$buf0\ d_lut_BUFX2
ABUFX2_insert198 [\genblk1_2_.u_ce.Ain12b\_11_] \genblk1_2_.u_ce.Ain12b_11_bF$buf1\ d_lut_BUFX2
ABUFX2_insert197 [\genblk1_2_.u_ce.Ain12b\_11_] \genblk1_2_.u_ce.Ain12b_11_bF$buf2\ d_lut_BUFX2
ABUFX2_insert196 [\genblk1_2_.u_ce.Ain12b\_11_] \genblk1_2_.u_ce.Ain12b_11_bF$buf3\ d_lut_BUFX2
ABUFX2_insert195 [_5174_] _5174__bF$buf0 d_lut_BUFX2
ABUFX2_insert194 [_5174_] _5174__bF$buf1 d_lut_BUFX2
ABUFX2_insert193 [_5174_] _5174__bF$buf2 d_lut_BUFX2
ABUFX2_insert192 [_5174_] _5174__bF$buf3 d_lut_BUFX2
ABUFX2_insert191 [_5174_] _5174__bF$buf4 d_lut_BUFX2
ABUFX2_insert190 [_158_] _158__bF$buf0 d_lut_BUFX2
ABUFX2_insert189 [_158_] _158__bF$buf1 d_lut_BUFX2
ABUFX2_insert188 [_158_] _158__bF$buf2 d_lut_BUFX2
ABUFX2_insert187 [_158_] _158__bF$buf3 d_lut_BUFX2
ABUFX2_insert186 [_158_] _158__bF$buf4 d_lut_BUFX2
ABUFX2_insert185 [\genblk1_3_.u_ce.Vld\] \genblk1_3_.u_ce.Vld_bF$buf0\ d_lut_BUFX2
ABUFX2_insert184 [\genblk1_3_.u_ce.Vld\] \genblk1_3_.u_ce.Vld_bF$buf1\ d_lut_BUFX2
ABUFX2_insert183 [\genblk1_3_.u_ce.Vld\] \genblk1_3_.u_ce.Vld_bF$buf2\ d_lut_BUFX2
ABUFX2_insert182 [\genblk1_3_.u_ce.Vld\] \genblk1_3_.u_ce.Vld_bF$buf3\ d_lut_BUFX2
ABUFX2_insert181 [\genblk1_3_.u_ce.Vld\] \genblk1_3_.u_ce.Vld_bF$buf4\ d_lut_BUFX2
ABUFX2_insert180 [_2649_] _2649__bF$buf0 d_lut_BUFX2
ABUFX2_insert179 [_2649_] _2649__bF$buf1 d_lut_BUFX2
ABUFX2_insert178 [_2649_] _2649__bF$buf2 d_lut_BUFX2
ABUFX2_insert177 [_2649_] _2649__bF$buf3 d_lut_BUFX2
ABUFX2_insert176 [_2649_] _2649__bF$buf4 d_lut_BUFX2
ABUFX2_insert175 [\genblk1_6_.u_ce.LoadCtl\_0_] \genblk1_6_.u_ce.LoadCtl_0_bF$buf0\ d_lut_BUFX2
ABUFX2_insert174 [\genblk1_6_.u_ce.LoadCtl\_0_] \genblk1_6_.u_ce.LoadCtl_0_bF$buf1\ d_lut_BUFX2
ABUFX2_insert173 [\genblk1_6_.u_ce.LoadCtl\_0_] \genblk1_6_.u_ce.LoadCtl_0_bF$buf2\ d_lut_BUFX2
ABUFX2_insert172 [\genblk1_6_.u_ce.LoadCtl\_0_] \genblk1_6_.u_ce.LoadCtl_0_bF$buf3\ d_lut_BUFX2
ABUFX2_insert171 [\genblk1_6_.u_ce.LoadCtl\_0_] \genblk1_6_.u_ce.LoadCtl_0_bF$buf4\ d_lut_BUFX2
ABUFX2_insert170 [_972_] _972__bF$buf0 d_lut_BUFX2
ABUFX2_insert169 [_972_] _972__bF$buf1 d_lut_BUFX2
ABUFX2_insert168 [_972_] _972__bF$buf2 d_lut_BUFX2
ABUFX2_insert167 [_972_] _972__bF$buf3 d_lut_BUFX2
ABUFX2_insert166 [_972_] _972__bF$buf4 d_lut_BUFX2
ABUFX2_insert165 [\genblk1_5_.u_ce.LoadCtl\_0_] \genblk1_5_.u_ce.LoadCtl_0_bF$buf0\ d_lut_BUFX2
ABUFX2_insert164 [\genblk1_5_.u_ce.LoadCtl\_0_] \genblk1_5_.u_ce.LoadCtl_0_bF$buf1\ d_lut_BUFX2
ABUFX2_insert163 [\genblk1_5_.u_ce.LoadCtl\_0_] \genblk1_5_.u_ce.LoadCtl_0_bF$buf2\ d_lut_BUFX2
ABUFX2_insert162 [\genblk1_5_.u_ce.LoadCtl\_0_] \genblk1_5_.u_ce.LoadCtl_0_bF$buf3\ d_lut_BUFX2
ABUFX2_insert161 [\genblk1_5_.u_ce.LoadCtl\_0_] \genblk1_5_.u_ce.LoadCtl_0_bF$buf4\ d_lut_BUFX2
ABUFX2_insert160 [_4325_] _4325__bF$buf0 d_lut_BUFX2
ABUFX2_insert159 [_4325_] _4325__bF$buf1 d_lut_BUFX2
ABUFX2_insert158 [_4325_] _4325__bF$buf2 d_lut_BUFX2
ABUFX2_insert157 [_4325_] _4325__bF$buf3 d_lut_BUFX2
ABUFX2_insert156 [_4325_] _4325__bF$buf4 d_lut_BUFX2
ABUFX2_insert155 [_5151_] _5151__bF$buf0 d_lut_BUFX2
ABUFX2_insert154 [_5151_] _5151__bF$buf1 d_lut_BUFX2
ABUFX2_insert153 [_5151_] _5151__bF$buf2 d_lut_BUFX2
ABUFX2_insert152 [_5151_] _5151__bF$buf3 d_lut_BUFX2
ABUFX2_insert151 [_5151_] _5151__bF$buf4 d_lut_BUFX2
ABUFX2_insert150 [_135_] _135__bF$buf0 d_lut_BUFX2
ABUFX2_insert149 [_135_] _135__bF$buf1 d_lut_BUFX2
ABUFX2_insert148 [_135_] _135__bF$buf2 d_lut_BUFX2
ABUFX2_insert147 [_135_] _135__bF$buf3 d_lut_BUFX2
ABUFX2_insert146 [_135_] _135__bF$buf4 d_lut_BUFX2
ABUFX2_insert145 [\genblk1_5_.u_ce.Vld\] \genblk1_5_.u_ce.Vld_bF$buf0\ d_lut_BUFX2
ABUFX2_insert144 [\genblk1_5_.u_ce.Vld\] \genblk1_5_.u_ce.Vld_bF$buf1\ d_lut_BUFX2
ABUFX2_insert143 [\genblk1_5_.u_ce.Vld\] \genblk1_5_.u_ce.Vld_bF$buf2\ d_lut_BUFX2
ABUFX2_insert142 [\genblk1_5_.u_ce.Vld\] \genblk1_5_.u_ce.Vld_bF$buf3\ d_lut_BUFX2
ABUFX2_insert141 [\genblk1_5_.u_ce.Vld\] \genblk1_5_.u_ce.Vld_bF$buf4\ d_lut_BUFX2
ABUFX2_insert140 [En] En_bF$buf0 d_lut_BUFX2
ABUFX2_insert139 [En] En_bF$buf1 d_lut_BUFX2
ABUFX2_insert138 [En] En_bF$buf2 d_lut_BUFX2
ABUFX2_insert137 [En] En_bF$buf3 d_lut_BUFX2
ABUFX2_insert136 [En] En_bF$buf4 d_lut_BUFX2
ABUFX2_insert135 [_3487_] _3487__bF$buf0 d_lut_BUFX2
ABUFX2_insert134 [_3487_] _3487__bF$buf1 d_lut_BUFX2
ABUFX2_insert133 [_3487_] _3487__bF$buf2 d_lut_BUFX2
ABUFX2_insert132 [_3487_] _3487__bF$buf3 d_lut_BUFX2
ABUFX2_insert131 [_3487_] _3487__bF$buf4 d_lut_BUFX2
ABUFX2_insert130 [\genblk1_1_.u_ce.LoadCtl\_0_] \genblk1_1_.u_ce.LoadCtl_0_bF$buf0\ d_lut_BUFX2
ABUFX2_insert129 [\genblk1_1_.u_ce.LoadCtl\_0_] \genblk1_1_.u_ce.LoadCtl_0_bF$buf1\ d_lut_BUFX2
ABUFX2_insert128 [\genblk1_1_.u_ce.LoadCtl\_0_] \genblk1_1_.u_ce.LoadCtl_0_bF$buf2\ d_lut_BUFX2
ABUFX2_insert127 [\genblk1_1_.u_ce.LoadCtl\_0_] \genblk1_1_.u_ce.LoadCtl_0_bF$buf3\ d_lut_BUFX2
ABUFX2_insert126 [\genblk1_1_.u_ce.LoadCtl\_0_] \genblk1_1_.u_ce.LoadCtl_0_bF$buf4\ d_lut_BUFX2
ABUFX2_insert125 [\genblk1_0_.u_ce.Vld\] \genblk1_0_.u_ce.Vld_bF$buf0\ d_lut_BUFX2
ABUFX2_insert124 [\genblk1_0_.u_ce.Vld\] \genblk1_0_.u_ce.Vld_bF$buf1\ d_lut_BUFX2
ABUFX2_insert123 [\genblk1_0_.u_ce.Vld\] \genblk1_0_.u_ce.Vld_bF$buf2\ d_lut_BUFX2
ABUFX2_insert122 [\genblk1_0_.u_ce.Vld\] \genblk1_0_.u_ce.Vld_bF$buf3\ d_lut_BUFX2
ABUFX2_insert121 [\genblk1_0_.u_ce.Vld\] \genblk1_0_.u_ce.Vld_bF$buf4\ d_lut_BUFX2
ABUFX2_insert120 [selXY] selXY_bF$buf0 d_lut_BUFX2
ABUFX2_insert119 [selXY] selXY_bF$buf1 d_lut_BUFX2
ABUFX2_insert118 [selXY] selXY_bF$buf2 d_lut_BUFX2
ABUFX2_insert117 [selXY] selXY_bF$buf3 d_lut_BUFX2
ABUFX2_insert116 [\genblk1_6_.u_ce.Ain12b\_11_] \genblk1_6_.u_ce.Ain12b_11_bF$buf0\ d_lut_BUFX2
ABUFX2_insert115 [\genblk1_6_.u_ce.Ain12b\_11_] \genblk1_6_.u_ce.Ain12b_11_bF$buf1\ d_lut_BUFX2
ABUFX2_insert114 [\genblk1_6_.u_ce.Ain12b\_11_] \genblk1_6_.u_ce.Ain12b_11_bF$buf2\ d_lut_BUFX2
ABUFX2_insert113 [\genblk1_6_.u_ce.Ain12b\_11_] \genblk1_6_.u_ce.Ain12b_11_bF$buf3\ d_lut_BUFX2
ABUFX2_insert112 [_6562_] _6562__bF$buf0 d_lut_BUFX2
ABUFX2_insert111 [_6562_] _6562__bF$buf1 d_lut_BUFX2
ABUFX2_insert110 [_6562_] _6562__bF$buf2 d_lut_BUFX2
ABUFX2_insert109 [_6562_] _6562__bF$buf3 d_lut_BUFX2
ABUFX2_insert108 [_6562_] _6562__bF$buf4 d_lut_BUFX2
ACLKBUF1_insert107 [clk_hier0_bF$buf7] clk_bF$buf0 d_lut_CLKBUF1
ACLKBUF1_insert106 [clk_hier0_bF$buf6] clk_bF$buf1 d_lut_CLKBUF1
ACLKBUF1_insert105 [clk_hier0_bF$buf5] clk_bF$buf2 d_lut_CLKBUF1
ACLKBUF1_insert104 [clk_hier0_bF$buf4] clk_bF$buf3 d_lut_CLKBUF1
ACLKBUF1_insert103 [clk_hier0_bF$buf3] clk_bF$buf4 d_lut_CLKBUF1
ACLKBUF1_insert102 [clk_hier0_bF$buf2] clk_bF$buf5 d_lut_CLKBUF1
ACLKBUF1_insert101 [clk_hier0_bF$buf1] clk_bF$buf6 d_lut_CLKBUF1
ACLKBUF1_insert100 [clk_hier0_bF$buf0] clk_bF$buf7 d_lut_CLKBUF1
ACLKBUF1_insert99 [clk_hier0_bF$buf7] clk_bF$buf8 d_lut_CLKBUF1
ACLKBUF1_insert98 [clk_hier0_bF$buf6] clk_bF$buf9 d_lut_CLKBUF1
ACLKBUF1_insert97 [clk_hier0_bF$buf5] clk_bF$buf10 d_lut_CLKBUF1
ACLKBUF1_insert96 [clk_hier0_bF$buf4] clk_bF$buf11 d_lut_CLKBUF1
ACLKBUF1_insert95 [clk_hier0_bF$buf3] clk_bF$buf12 d_lut_CLKBUF1
ACLKBUF1_insert94 [clk_hier0_bF$buf2] clk_bF$buf13 d_lut_CLKBUF1
ACLKBUF1_insert93 [clk_hier0_bF$buf1] clk_bF$buf14 d_lut_CLKBUF1
ACLKBUF1_insert92 [clk_hier0_bF$buf0] clk_bF$buf15 d_lut_CLKBUF1
ACLKBUF1_insert91 [clk_hier0_bF$buf7] clk_bF$buf16 d_lut_CLKBUF1
ACLKBUF1_insert90 [clk_hier0_bF$buf6] clk_bF$buf17 d_lut_CLKBUF1
ACLKBUF1_insert89 [clk_hier0_bF$buf5] clk_bF$buf18 d_lut_CLKBUF1
ACLKBUF1_insert88 [clk_hier0_bF$buf4] clk_bF$buf19 d_lut_CLKBUF1
ACLKBUF1_insert87 [clk_hier0_bF$buf3] clk_bF$buf20 d_lut_CLKBUF1
ACLKBUF1_insert86 [clk_hier0_bF$buf2] clk_bF$buf21 d_lut_CLKBUF1
ACLKBUF1_insert85 [clk_hier0_bF$buf1] clk_bF$buf22 d_lut_CLKBUF1
ACLKBUF1_insert84 [clk_hier0_bF$buf0] clk_bF$buf23 d_lut_CLKBUF1
ACLKBUF1_insert83 [clk_hier0_bF$buf7] clk_bF$buf24 d_lut_CLKBUF1
ACLKBUF1_insert82 [clk_hier0_bF$buf6] clk_bF$buf25 d_lut_CLKBUF1
ACLKBUF1_insert81 [clk_hier0_bF$buf5] clk_bF$buf26 d_lut_CLKBUF1
ACLKBUF1_insert80 [clk_hier0_bF$buf4] clk_bF$buf27 d_lut_CLKBUF1
ACLKBUF1_insert79 [clk_hier0_bF$buf3] clk_bF$buf28 d_lut_CLKBUF1
ACLKBUF1_insert78 [clk_hier0_bF$buf2] clk_bF$buf29 d_lut_CLKBUF1
ACLKBUF1_insert77 [clk_hier0_bF$buf1] clk_bF$buf30 d_lut_CLKBUF1
ACLKBUF1_insert76 [clk_hier0_bF$buf0] clk_bF$buf31 d_lut_CLKBUF1
ACLKBUF1_insert75 [clk_hier0_bF$buf7] clk_bF$buf32 d_lut_CLKBUF1
ACLKBUF1_insert74 [clk_hier0_bF$buf6] clk_bF$buf33 d_lut_CLKBUF1
ACLKBUF1_insert73 [clk_hier0_bF$buf5] clk_bF$buf34 d_lut_CLKBUF1
ACLKBUF1_insert72 [clk_hier0_bF$buf4] clk_bF$buf35 d_lut_CLKBUF1
ACLKBUF1_insert71 [clk_hier0_bF$buf3] clk_bF$buf36 d_lut_CLKBUF1
ACLKBUF1_insert70 [clk_hier0_bF$buf2] clk_bF$buf37 d_lut_CLKBUF1
ACLKBUF1_insert69 [clk_hier0_bF$buf1] clk_bF$buf38 d_lut_CLKBUF1
ACLKBUF1_insert68 [clk_hier0_bF$buf0] clk_bF$buf39 d_lut_CLKBUF1
ACLKBUF1_insert67 [clk_hier0_bF$buf7] clk_bF$buf40 d_lut_CLKBUF1
ACLKBUF1_insert66 [clk_hier0_bF$buf6] clk_bF$buf41 d_lut_CLKBUF1
ACLKBUF1_insert65 [clk_hier0_bF$buf5] clk_bF$buf42 d_lut_CLKBUF1
ACLKBUF1_insert64 [clk_hier0_bF$buf4] clk_bF$buf43 d_lut_CLKBUF1
ACLKBUF1_insert63 [clk_hier0_bF$buf3] clk_bF$buf44 d_lut_CLKBUF1
ACLKBUF1_insert62 [clk_hier0_bF$buf2] clk_bF$buf45 d_lut_CLKBUF1
ACLKBUF1_insert61 [clk_hier0_bF$buf1] clk_bF$buf46 d_lut_CLKBUF1
ACLKBUF1_insert60 [clk_hier0_bF$buf0] clk_bF$buf47 d_lut_CLKBUF1
ACLKBUF1_insert59 [clk_hier0_bF$buf7] clk_bF$buf48 d_lut_CLKBUF1
ACLKBUF1_insert58 [clk_hier0_bF$buf6] clk_bF$buf49 d_lut_CLKBUF1
ACLKBUF1_insert57 [clk_hier0_bF$buf5] clk_bF$buf50 d_lut_CLKBUF1
ACLKBUF1_insert56 [clk_hier0_bF$buf4] clk_bF$buf51 d_lut_CLKBUF1
ACLKBUF1_insert55 [clk_hier0_bF$buf3] clk_bF$buf52 d_lut_CLKBUF1
ACLKBUF1_insert54 [clk_hier0_bF$buf2] clk_bF$buf53 d_lut_CLKBUF1
ACLKBUF1_insert53 [clk_hier0_bF$buf1] clk_bF$buf54 d_lut_CLKBUF1
ACLKBUF1_insert52 [clk_hier0_bF$buf0] clk_bF$buf55 d_lut_CLKBUF1
ACLKBUF1_insert51 [clk_hier0_bF$buf7] clk_bF$buf56 d_lut_CLKBUF1
ACLKBUF1_insert50 [clk_hier0_bF$buf6] clk_bF$buf57 d_lut_CLKBUF1
ACLKBUF1_insert49 [clk_hier0_bF$buf5] clk_bF$buf58 d_lut_CLKBUF1
ACLKBUF1_insert48 [clk_hier0_bF$buf4] clk_bF$buf59 d_lut_CLKBUF1
ACLKBUF1_insert47 [clk_hier0_bF$buf3] clk_bF$buf60 d_lut_CLKBUF1
ACLKBUF1_insert46 [clk_hier0_bF$buf2] clk_bF$buf61 d_lut_CLKBUF1
ACLKBUF1_insert45 [clk_hier0_bF$buf1] clk_bF$buf62 d_lut_CLKBUF1
ACLKBUF1_insert44 [clk_hier0_bF$buf0] clk_bF$buf63 d_lut_CLKBUF1
ACLKBUF1_insert43 [clk_hier0_bF$buf7] clk_bF$buf64 d_lut_CLKBUF1
ACLKBUF1_insert42 [clk_hier0_bF$buf6] clk_bF$buf65 d_lut_CLKBUF1
ACLKBUF1_insert41 [clk_hier0_bF$buf5] clk_bF$buf66 d_lut_CLKBUF1
ACLKBUF1_insert40 [clk_hier0_bF$buf4] clk_bF$buf67 d_lut_CLKBUF1
ACLKBUF1_insert39 [clk_hier0_bF$buf3] clk_bF$buf68 d_lut_CLKBUF1
ACLKBUF1_insert38 [clk_hier0_bF$buf2] clk_bF$buf69 d_lut_CLKBUF1
ACLKBUF1_insert37 [clk_hier0_bF$buf1] clk_bF$buf70 d_lut_CLKBUF1
ACLKBUF1_insert36 [clk_hier0_bF$buf0] clk_bF$buf71 d_lut_CLKBUF1
ACLKBUF1_insert35 [clk_hier0_bF$buf7] clk_bF$buf72 d_lut_CLKBUF1
ACLKBUF1_insert34 [clk_hier0_bF$buf6] clk_bF$buf73 d_lut_CLKBUF1
ACLKBUF1_insert33 [clk_hier0_bF$buf5] clk_bF$buf74 d_lut_CLKBUF1
ACLKBUF1_insert32 [clk_hier0_bF$buf4] clk_bF$buf75 d_lut_CLKBUF1
ACLKBUF1_insert31 [clk_hier0_bF$buf3] clk_bF$buf76 d_lut_CLKBUF1
ACLKBUF1_insert30 [clk_hier0_bF$buf2] clk_bF$buf77 d_lut_CLKBUF1
ACLKBUF1_insert29 [clk_hier0_bF$buf1] clk_bF$buf78 d_lut_CLKBUF1
ABUFX2_insert28 [_1010_] _1010__bF$buf0 d_lut_BUFX2
ABUFX2_insert27 [_1010_] _1010__bF$buf1 d_lut_BUFX2
ABUFX2_insert26 [_1010_] _1010__bF$buf2 d_lut_BUFX2
ABUFX2_insert25 [_1010_] _1010__bF$buf3 d_lut_BUFX2
ABUFX2_insert24 [_1010_] _1010__bF$buf4 d_lut_BUFX2
ABUFX2_insert23 [_1010_] _1010__bF$buf5 d_lut_BUFX2
ABUFX2_insert22 [\genblk1_5_.u_ce.Ain12b\_11_] \genblk1_5_.u_ce.Ain12b_11_bF$buf0\ d_lut_BUFX2
ABUFX2_insert21 [\genblk1_5_.u_ce.Ain12b\_11_] \genblk1_5_.u_ce.Ain12b_11_bF$buf1\ d_lut_BUFX2
ABUFX2_insert20 [\genblk1_5_.u_ce.Ain12b\_11_] \genblk1_5_.u_ce.Ain12b_11_bF$buf2\ d_lut_BUFX2
ABUFX2_insert19 [\genblk1_5_.u_ce.Ain12b\_11_] \genblk1_5_.u_ce.Ain12b_11_bF$buf3\ d_lut_BUFX2
ABUFX2_insert18 [_996_] _996__bF$buf0 d_lut_BUFX2
ABUFX2_insert17 [_996_] _996__bF$buf1 d_lut_BUFX2
ABUFX2_insert16 [_996_] _996__bF$buf2 d_lut_BUFX2
ABUFX2_insert15 [_996_] _996__bF$buf3 d_lut_BUFX2
ABUFX2_insert14 [_996_] _996__bF$buf4 d_lut_BUFX2
ABUFX2_insert13 [\genblk1_2_.u_ce.Vld\] \genblk1_2_.u_ce.Vld_bF$buf0\ d_lut_BUFX2
ABUFX2_insert12 [\genblk1_2_.u_ce.Vld\] \genblk1_2_.u_ce.Vld_bF$buf1\ d_lut_BUFX2
ABUFX2_insert11 [\genblk1_2_.u_ce.Vld\] \genblk1_2_.u_ce.Vld_bF$buf2\ d_lut_BUFX2
ABUFX2_insert10 [\genblk1_2_.u_ce.Vld\] \genblk1_2_.u_ce.Vld_bF$buf3\ d_lut_BUFX2
ABUFX2_insert9 [\genblk1_2_.u_ce.Vld\] \genblk1_2_.u_ce.Vld_bF$buf4\ d_lut_BUFX2
ABUFX2_insert8 [\genblk1_1_.u_ce.Ain12b\_11_] \genblk1_1_.u_ce.Ain12b_11_bF$buf0\ d_lut_BUFX2
ABUFX2_insert7 [\genblk1_1_.u_ce.Ain12b\_11_] \genblk1_1_.u_ce.Ain12b_11_bF$buf1\ d_lut_BUFX2
ABUFX2_insert6 [\genblk1_1_.u_ce.Ain12b\_11_] \genblk1_1_.u_ce.Ain12b_11_bF$buf2\ d_lut_BUFX2
ABUFX2_insert5 [\genblk1_1_.u_ce.Ain12b\_11_] \genblk1_1_.u_ce.Ain12b_11_bF$buf3\ d_lut_BUFX2
ABUFX2_insert4 [\u_ot.ISreg\] \u_ot.ISreg_bF$buf0\ d_lut_BUFX2
ABUFX2_insert3 [\u_ot.ISreg\] \u_ot.ISreg_bF$buf1\ d_lut_BUFX2
ABUFX2_insert2 [\u_ot.ISreg\] \u_ot.ISreg_bF$buf2\ d_lut_BUFX2
ABUFX2_insert1 [\u_ot.ISreg\] \u_ot.ISreg_bF$buf3\ d_lut_BUFX2
ABUFX2_insert0 [\u_ot.ISreg\] \u_ot.ISreg_bF$buf4\ d_lut_BUFX2
A_10000_ [_2674_] _2741_ d_lut_INVX2
A_10001_ [\genblk1_3_.u_ce.Ain12b_11_bF$buf3\ _2741_ \genblk1_3_.u_ce.Vld_bF$buf4\] _2742_ d_lut_OAI21X1
A_10002_ [_2742_ _2740_ _2720_] _2517_ d_lut_OAI21X1
A_10003_ [\genblk1_3_.u_ce.Ycalc\_3_] _2743_ d_lut_INVX1
A_10004_ [_2742_] _2744_ d_lut_INVX2
A_10005_ [_2733_ _2721_ _2734_] _2745_ d_lut_OAI21X1
A_10006_ [_2745_] _2746_ d_lut_INVX1
A_10007_ [\genblk1_3_.u_ce.Yin1\_1_] _2747_ d_lut_INVX1
A_10008_ [_2684_ _2709_ _2727_] _2748_ d_lut_NAND3X1
A_10009_ [\genblk1_3_.u_ce.Xin12b\_9_] _2749_ d_lut_INVX1
A_10010_ [vdd \genblk1_3_.u_ce.Xin12b\_10_] _2750_ d_lut_NAND2X1
A_10011_ [vdd _2749_ _2750_] _2751_ d_lut_OAI21X1
A_10012_ [_2649__bF$buf4 _2703_] _2752_ d_lut_NAND2X1
A_10013_ [_2649__bF$buf3 _2751_ _2752_] _2753_ d_lut_OAI21X1
A_10014_ [gnd _2649__bF$buf2] _2754_ d_lut_NOR2X1
A_10015_ [gnd vdd] _2755_ d_lut_NOR2X1
A_10016_ [_2696_ _2755_ _2754_ _2692_] _2756_ d_lut_AOI22X1
A_10017_ [_2648__bF$buf4 _2753_ _2756_] _2757_ d_lut_OAI21X1
A_10018_ [_2686__bF$buf5 _2757_ _2748_] _2758_ d_lut_NAND3X1
A_10019_ [_2748_] _2759_ d_lut_INVX1
A_10020_ [_2757_] _2760_ d_lut_INVX1
A_10021_ [\genblk1_3_.u_ce.Ain12b_11_bF$buf2\ _2759_ _2760_] _2761_ d_lut_OAI21X1
A_10022_ [_2747_ _2758_ _2761_] _2762_ d_lut_NAND3X1
A_10023_ [_2761_ _2758_ _2747_] _2763_ d_lut_AOI21X1
A_10024_ [_2763_] _2764_ d_lut_INVX1
A_10025_ [_2762_ _2764_] _2765_ d_lut_NAND2X1
A_10026_ [_2765_ _2746_ _2674_] _2766_ d_lut_AOI21X1
A_10027_ [_2746_ _2765_ _2766_] _2767_ d_lut_OAI21X1
A_10028_ [_2743_ _2672__bF$buf4 _2767_ _2744_] _2518_ d_lut_AOI22X1
A_10029_ [_2745_ _2762_ _2763_] _2768_ d_lut_AOI21X1
A_10030_ [\genblk1_3_.u_ce.Yin12b\_4_] _2769_ d_lut_INVX1
A_10031_ [\genblk1_3_.u_ce.Xin12b\_10_] _2770_ d_lut_INVX1
A_10032_ [vdd \genblk1_3_.u_ce.Xin12b\_11_] _2771_ d_lut_NAND2X1
A_10033_ [vdd _2770_ _2771_] _2772_ d_lut_OAI21X1
A_10034_ [_2649__bF$buf1 _2722_] _2773_ d_lut_NAND2X1
A_10035_ [_2649__bF$buf0 _2772_ _2773_] _2774_ d_lut_OAI21X1
A_10036_ [_2648__bF$buf3 _2677_] _2775_ d_lut_NAND2X1
A_10037_ [_2648__bF$buf2 _2774_ _2775_] _2776_ d_lut_OAI21X1
A_10038_ [_2776_] _2777_ d_lut_INVX2
A_10039_ [_2757_ _2748_ _2686__bF$buf4] _2778_ d_lut_OAI21X1
A_10040_ [_2778_ _2777_] _2779_ d_lut_OR2X2
A_10041_ [_2757_ _2748_] _2780_ d_lut_NOR2X1
A_10042_ [\genblk1_3_.u_ce.Ain12b_11_bF$buf1\ _2780_ _2777_] _2781_ d_lut_OAI21X1
A_10043_ [_2769_ _2781_ _2779_] _2782_ d_lut_NAND3X1
A_10044_ [_2777_ _2778_] _2783_ d_lut_NOR2X1
A_10045_ [_2778_ _2777_] _2784_ d_lut_AND2X2
A_10046_ [_2783_ _2784_ \genblk1_3_.u_ce.Yin12b\_4_] _2785_ d_lut_OAI21X1
A_10047_ [_2785_ _2782_] _2786_ d_lut_NAND2X1
A_10048_ [_2768_ _2786_ _2674_] _2787_ d_lut_AOI21X1
A_10049_ [_2768_ _2786_ _2787_] _2788_ d_lut_OAI21X1
A_10050_ [_2619_ _2672__bF$buf3 _2788_ _2744_] _2519_ d_lut_AOI22X1
A_10051_ [_2786_ _2768_ _2785_] _2789_ d_lut_OAI21X1
A_10052_ [\genblk1_3_.u_ce.Yin12b\_5_] _2790_ d_lut_INVX1
A_10053_ [_2760_ _2777_ _2759_] _2791_ d_lut_NAND3X1
A_10054_ [vdd \genblk1_3_.u_ce.Xin12b\_11_] _2792_ d_lut_NAND2X1
A_10055_ [_2792_] _2793_ d_lut_INVX1
A_10056_ [_2751_ _2649__bF$buf4 _2793_] _2794_ d_lut_AOI21X1
A_10057_ [_2648__bF$buf1 _2705_] _2795_ d_lut_NAND2X1
A_10058_ [_2648__bF$buf0 _2794_ _2795_] _2796_ d_lut_OAI21X1