*SPEF "IEEE 1481.1999"
*DESIGN "phase_accumulator"
*DATE "19:43:06 Thursday February 27, 2025"
*VENDOR "unknown"
*PROGRAM "qrouter"
*VERSION "unknown"
*DESIGN_FLOW "qflow"
*DIVIDER /
*DELIMITER :
*BUS_DELIMITER <>
*T_UNIT 1 PS
*C_UNIT 1 FF
*R_UNIT 1 OHM
*L_UNIT 1 HENRY

*NAME_MAP
*1 _73__bF_buf4
*2 BUFX2_insert16
*3 _479_
*4 _359_
*5 _380_
*6 _481_
*7 _404_
*8 _492_
*9 _482_
*10 En_bF_buf2
*11 BUFX2_insert13
*12 _489_
*13 _475_
*14 _357_
*15 _347_
*16 _440_
*17 _432_
*18 _534_
*19 En_bF_buf3
*20 BUFX2_insert12
*21 _405_
*22 _483_
*23 _542_
*24 _553_
*25 _393_
*26 _485_
*27 _538_
*28 En_bF_buf4
*29 BUFX2_insert11
*30 _535_
*31 _481_
*32 _492_
*33 _455_
*34 _458_
*35 _479_
*36 _381_
*37 RdyCtl_6_bF_buf3
*38 BUFX2_insert7
*39 _324_
*40 _347_
*41 _357_
*42 _348_
*43 _440_
*44 _432_
*45 _433_
*46 RdyCtl_6_bF_buf4
*47 BUFX2_insert6
*48 _572_
*49 _584_
*50 _585_
*51 _593_
*52 _608_
*53 _609_
*54 _564_
*55 clk_bF_buf3
*56 CLKBUF1_insert2
*57 _637_
*58 _638_
*59 _636_
*60 _661_
*61 _630_
*62 _639_
*63 _662_
*64 clk_bF_buf4
*65 CLKBUF1_insert1
*66 _654_
*67 _642_
*68 _640_
*69 _655_
*70 _644_
*71 _641_
*72 _643_
*73 clk_bF_buf5
*74 CLKBUF1_insert0
*75 _656_
*76 _653_
*77 _627_
*78 _649_
*79 _650_
*80 _626_
*81 _628_
*82 _73__bF_buf0
*83 BUFX2_insert20
*84 _486_
*85 _485_
*86 _560_
*87 _562_
*88 _484_
*89 _483_
*90 _73__bF_buf1
*91 BUFX2_insert19
*92 _477_
*93 _470_
*94 _476_
*95 _615_
*96 _333_
*97 _473_
*98 _73__bF_buf2
*99 BUFX2_insert18
*100 _533_
*101 _439_
*102 _356_
*103 _475_
*104 _480_
*105 _467_
*106 _73__bF_buf3
*107 BUFX2_insert17
*108 _489_
*109 _478_
*110 _487_
*111 _488_
*112 _490_
*113 _592_
*114 En_bF_buf0
*115 BUFX2_insert15
*116 _477_
*117 _470_
*118 _334_
*119 _473_
*120 _616_
*121 _323_
*122 En_bF_buf1
*123 BUFX2_insert14
*124 _532_
*125 _584_
*126 _593_
*127 _564_
*128 _487_
*129 _608_
*130 RdyCtl_6_bF_buf0
*131 BUFX2_insert10
*132 _531_
*133 _472_
*134 _334_
*135 _616_
*136 _323_
*137 _469_
*138 RdyCtl_6_bF_buf1
*139 BUFX2_insert9
*140 _541_
*141 _553_
*142 _554_
*143 _668_
*144 _394_
*145 _393_
*146 RdyCtl_6_bF_buf2
*147 BUFX2_insert8
*148 _405_
*149 _381_
*150 _372_
*151 _456_
*152 _455_
*153 _491_
*154 clk
*155 CLKBUF1_insert2
*156 CLKBUF1_insert4
*157 CLKBUF1_insert5
*158 CLKBUF1_insert3
*159 CLKBUF1_insert1
*160 CLKBUF1_insert0
*161 clk_bF_buf0
*162 CLKBUF1_insert5
*163 _648_
*164 _634_
*165 _647_
*166 _633_
*167 _659_
*168 _635_
*169 clk_bF_buf1
*170 CLKBUF1_insert4
*171 _660_
*172 _631_
*173 _632_
*174 _663_
*175 _629_
*176 _658_
*177 clk_bF_buf2
*178 CLKBUF1_insert3
*179 _645_
*180 _652_
*181 _651_
*182 _664_
*183 _657_
*184 _646_
*185 _156_
*186 _316_
*187 _320_
*188 _321_
*189 _325_
*190 _340_
*191 _366_
*192 _417_
*193 _74_
*194 _532_
*195 _537_
*196 _536_
*197 _539_
*198 _533_
*199 _373_
*200 _563_
*201 _73_
*202 _531_
*203 BUFX2_insert17
*204 BUFX2_insert20
*205 BUFX2_insert18
*206 BUFX2_insert16
*207 BUFX2_insert19
*208 En
*209 BUFX2_insert14
*210 BUFX2_insert11
*211 BUFX2_insert13
*212 BUFX2_insert15
*213 BUFX2_insert12
*214 RdyCtl[6]
*215 _632_
*216 BUFX2_insert7
*217 BUFX2_insert10
*218 BUFX2_insert6
*219 BUFX2_insert8
*220 BUFX2_insert9
*221 _129_
*222 _600_
*223 _622_
*224 _313_
*225 _604_
*226 _602_
*227 _610_
*228 _159_
*229 _319_
*230 _325_
*231 _339_
*232 _360_
*233 _321_
*234 _320_
*235 acc_reg[9]
*236 _642_
*237 _334_
*238 _473_
*239 _336_
*240 _326_
*241 _327_
*242 acc_reg[10]
*243 _643_
*244 _342_
*245 _349_
*246 _341_
*247 _347_
*248 _475_
*249 acc_reg[13]
*250 _646_
*251 _384_
*252 _377_
*253 _376_
*254 _381_
*255 _481_
*256 acc_reg[14]
*257 _647_
*258 _395_
*259 _483_
*260 _393_
*261 _388_
*262 _387_
*263 acc_reg[18]
*264 _651_
*265 _492_
*266 _524_
*267 _525_
*268 _447_
*269 _455_
*270 acc_reg[19]
*271 _652_
*272 _458_
*273 _524_
*274 _526_
*275 _462_
*276 _461_
*277 RdyCtl[1]
*278 _627_
*279 _508_
*280 _535_
*281 _520_
*282 _519_
*283 _507_
*284 RdyCtl[0]
*285 _626_
*286 _510_
*287 _534_
*288 _509_
*289 _521_
*290 _522_
*291 _108_
*292 _577_
*293 _581_
*294 _586_
*295 _625_
*296 _595_
*297 _579_
*298 acc_reg[7]
*299 _640_
*300 _611_
*301 _616_
*302 _612_
*303 _620_
*304 _619_
*305 _111_
*306 _580_
*307 _582_
*308 _316_
*309 _599_
*310 _586_
*311 acc_reg[8]
*312 _641_
*313 _323_
*314 _318_
*315 _317_
*316 _470_
*317 _169_
*318 _330_
*319 _339_
*320 _331_
*321 _332_
*322 _360_
*323 _181_
*324 _343_
*325 _345_
*326 _361_
*327 _362_
*328 _344_
*329 acc_reg[11]
*330 _644_
*331 _352_
*332 _351_
*333 _357_
*334 _477_
*335 acc_reg[12]
*336 _645_
*337 _479_
*338 _359_
*339 _367_
*340 _368_
*341 _202_
*342 _366_
*343 _370_
*344 _374_
*345 _371_
*346 _386_
*347 _205_
*348 _369_
*349 _371_
*350 _370_
*351 _383_
*352 _375_
*353 _221_
*354 _387_
*355 _391_
*356 _389_
*357 _407_
*358 _414_
*359 acc_reg[15]
*360 _648_
*361 _405_
*362 _485_
*363 _398_
*364 _396_
*365 acc_reg[16]
*366 _649_
*367 _419_
*368 _418_
*369 _432_
*370 _487_
*371 _250_
*372 _418_
*373 _443_
*374 _420_
*375 _434_
*376 _430_
*377 acc_reg[17]
*378 _650_
*379 _440_
*380 _436_
*381 _435_
*382 _489_
*383 _268_
*384 _437_
*385 _439_
*386 _438_
*387 _443_
*388 _442_
*389 _276_
*390 _446_
*391 _459_
*392 _453_
*393 _448_
*394 _465_
*395 _40_
*396 _495_
*397 _517_
*398 _536_
*399 _504_
*400 _505_
*401 _44_
*402 _499_
*403 _500_
*404 _538_
*405 _513_
*406 _501_
*407 _89_
*408 _556_
*409 _558_
*410 _575_
*411 _568_
*412 _569_
*413 _112_
*414 _581_
*415 _586_
*416 _598_
*417 _618_
*418 _582_
*419 _119_
*420 _589_
*421 _598_
*422 _618_
*423 _591_
*424 _590_
*425 FCW[7]
*426 _619_
*427 _620_
*428 _612_
*429 _611_
*430 _157_
*431 _317_
*432 _319_
*433 _325_
*434 _337_
*435 FCW[9]
*436 _326_
*437 _336_
*438 _328_
*439 FCW[10]
*440 _342_
*441 _349_
*442 _341_
*443 _190_
*444 _353_
*445 _354_
*446 _362_
*447 _361_
*448 _197_
*449 _361_
*450 _366_
*451 _426_
*452 _409_
*453 _203_
*454 _367_
*455 _369_
*456 _375_
*457 _385_
*458 FCW[13]
*459 _384_
*460 _377_
*461 _376_
*462 _213_
*463 _378_
*464 _379_
*465 _380_
*466 _383_
*467 _217_
*468 _383_
*469 _408_
*470 _386_
*471 _412_
*472 _220_
*473 _386_
*474 _391_
*475 _401_
*476 _390_
*477 FCW[14]
*478 _388_
*479 _387_
*480 _395_
*481 _222_
*482 _388_
*483 _391_
*484 _389_
*485 _407_
*486 _223_
*487 _389_
*488 _411_
*489 _401_
*490 _390_
*491 _232_
*492 _399_
*493 _413_
*494 _408_
*495 _400_
*496 _240_
*497 _408_
*498 _428_
*499 _426_
*500 _409_
*501 _249_
*502 _417_
*503 _452_
*504 _421_
*505 _434_
*506 _252_
*507 _420_
*508 _434_
*509 _442_
*510 _421_
*511 _141_
*512 _613_
*513 _614_
*514 _615_
*515 _422_
*516 _277_
*517 _447_
*518 _460_
*519 _448_
*520 _453_
*521 RdyCtl[3]
*522 _629_
*523 _515_
*524 _497_
*525 _516_
*526 _42_
*527 _497_
*528 _503_
*529 _502_
*530 _537_
*531 _66_
*532 _523_
*533 _539_
*534 _530_
*535 _529_
*536 _78_
*537 _544_
*538 _555_
*539 _550_
*540 _548_
*541 acc_reg[1]
*542 _634_
*543 _553_
*544 _547_
*545 _545_
*546 _81_
*547 _547_
*548 _548_
*549 _549_
*550 _555_
*551 _88_
*552 _555_
*553 _573_
*554 _561_
*555 _559_
*556 acc_reg[2]
*557 _635_
*558 _557_
*559 _556_
*560 _562_
*561 _91_
*562 _558_
*563 _573_
*564 _561_
*565 _559_
*566 _92_
*567 _559_
*568 _568_
*569 _569_
*570 _560_
*571 acc_reg[3]
*572 _636_
*573 _564_
*574 _566_
*575 _565_
*576 _97_
*577 _565_
*578 _567_
*579 _575_
*580 _570_
*581 _98_
*582 _566_
*583 _574_
*584 _570_
*585 _567_
*586 acc_reg[4]
*587 _637_
*588 _578_
*589 _577_
*590 _584_
*591 acc_reg[5]
*592 _638_
*593 _593_
*594 _588_
*595 _587_
*596 _117_
*597 _587_
*598 _589_
*599 _596_
*600 _625_
*601 _118_
*602 _588_
*603 _624_
*604 _597_
*605 _589_
*606 _128_
*607 _599_
*608 _603_
*609 _606_
*610 _610_
*611 acc_reg[6]
*612 _639_
*613 _601_
*614 _600_
*615 _608_
*616 _130_
*617 _601_
*618 _622_
*619 _602_
*620 _605_
*621 _147_
*622 _620_
*623 _621_
*624 _313_
*625 _139_
*626 _611_
*627 _313_
*628 _613_
*629 _153_
*630 _313_
*631 _314_
*632 _424_
*633 _149_
*634 _622_
*635 _315_
*636 _623_
*637 FCW[8]
*638 _318_
*639 _317_
*640 _164_
*641 _325_
*642 _331_
*643 _332_
*644 _165_
*645 _326_
*646 _337_
*647 _330_
*648 _175_
*649 _337_
*650 _338_
*651 _362_
*652 _178_
*653 _340_
*654 _344_
*655 _345_
*656 _179_
*657 _341_
*658 _364_
*659 _343_
*660 _182_
*661 _344_
*662 _350_
*663 _346_
*664 _187_
*665 _350_
*666 _355_
*667 _356_
*668 FCW[11]
*669 _352_
*670 _351_
*671 _188_
*672 _351_
*673 _364_
*674 _353_
*675 _189_
*676 _352_
*677 _363_
*678 _353_
*679 _191_
*680 _354_
*681 _356_
*682 _355_
*683 _198_
*684 _362_
*685 _410_
*686 _365_
*687 _200_
*688 _364_
*689 _410_
*690 _365_
*691 _201_
*692 _365_
*693 _366_
*694 _428_
*695 FCW[12]
*696 _368_
*697 _367_
*698 _210_
*699 _375_
*700 _380_
*701 _379_
*702 _211_
*703 _376_
*704 _385_
*705 _378_
*706 _219_
*707 _385_
*708 _386_
*709 _413_
*710 _224_
*711 _390_
*712 _400_
*713 _392_
*714 _228_
*715 _395_
*716 _400_
*717 _401_
*718 FCW[15]
*719 _398_
*720 _396_
*721 _229_
*722 _396_
*723 _403_
*724 _397_
*725 _230_
*726 _397_
*727 _399_
*728 _414_
*729 _231_
*730 _398_
*731 _399_
*732 _402_
*733 _235_
*734 _402_
*735 _414_
*736 _403_
*737 _236_
*738 _403_
*739 _411_
*740 _404_
*741 _239_
*742 _407_
*743 _408_
*744 _413_
*745 _245_
*746 _413_
*747 _427_
*748 _415_
*749 _246_
*750 _414_
*751 _427_
*752 _415_
*753 FCW[16]
*754 _418_
*755 _419_
*756 _251_
*757 _419_
*758 _420_
*759 _430_
*760 _131_
*761 _602_
*762 _603_
*763 _422_
*764 _254_
*765 _422_
*766 _424_
*767 _423_
*768 _127_
*769 _598_
*770 _599_
*771 _423_
*772 _126_
*773 _597_
*774 _599_
*775 _424_
*776 _107_
*777 _576_
*778 _579_
*779 _425_
*780 _261_
*781 _429_
*782 _430_
*783 _444_
*784 _265_
*785 _434_
*786 _439_
*787 _438_
*788 FCW[17]
*789 _435_
*790 _436_
*791 _266_
*792 _435_
*793 _437_
*794 _443_
*795 _272_
*796 _442_
*797 _444_
*798 _450_
*799 _273_
*800 _443_
*801 _451_
*802 _444_
*803 _274_
*804 _444_
*805 _465_
*806 _449_
*807 FCW[18]
*808 _445_
*809 _447_
*810 _68_
*811 _525_
*812 _527_
*813 _446_
*814 _278_
*815 _448_
*816 _449_
*817 _465_
*818 _282_
*819 _452_
*820 _453_
*821 _460_
*822 _0_
*823 _533_
*824 _457_
*825 _626_
*826 FCW[19]
*827 _461_
*828 _462_
*829 _292_
*830 _463_
*831 _466_
*832 _464_
*833 Atmp[0]
*834 _653_
*835 _509_
*836 _469_
*837 Atmp[1]
*838 _654_
*839 _472_
*840 _521_
*841 _51_
*842 _506_
*843 _476_
*844 _507_
*845 _62_
*846 _518_
*847 _519_
*848 _478_
*849 _39_
*850 _494_
*851 _480_
*852 _505_
*853 _55_
*854 _511_
*855 _517_
*856 _482_
*857 _41_
*858 _496_
*859 _484_
*860 _503_
*861 _58_
*862 _514_
*863 _486_
*864 _515_
*865 _43_
*866 _498_
*867 _501_
*868 _488_
*869 _56_
*870 _512_
*871 _490_
*872 _513_
*873 Atmp[11]
*874 _663_
*875 _500_
*876 _491_
*877 RdyCtl[2]
*878 _628_
*879 _495_
*880 _515_
*881 _45_
*882 _500_
*883 _513_
*884 _501_
*885 _312_
*886 _664_
*887 _529_
*888 _667_
*889 acc_reg[0]
*890 _633_
*891 _544_
*892 _540_
*893 _75_
*894 _540_
*895 _543_
*896 _542_
*897 FCW[0]
*898 _544_
*899 _541_
*900 _76_
*901 _541_
*902 _543_
*903 _542_
*904 FCW[1]
*905 _545_
*906 _547_
*907 _79_
*908 _545_
*909 _546_
*910 _555_
*911 _80_
*912 _546_
*913 _549_
*914 _548_
*915 FCW[2]
*916 _557_
*917 _556_
*918 FCW[3]
*919 _566_
*920 _565_
*921 _99_
*922 _567_
*923 _568_
*924 _573_
*925 _104_
*926 _573_
*927 _576_
*928 _580_
*929 _106_
*930 _575_
*931 _576_
*932 _580_
*933 FCW[4]
*934 _578_
*935 _577_
*936 _109_
*937 _578_
*938 _581_
*939 _579_
*940 _116_
*941 _586_
*942 _591_
*943 _590_
*944 FCW[5]
*945 _588_
*946 _587_
*947 FCW[6]
*948 _600_
*949 _601_
*950 _134_
*951 _605_
*952 _610_
*953 _606_
*954 _138_
*955 _610_
*956 _614_
*957 _615_
*958 _154_
*959 _314_
*960 _315_
*961 _152_
*962 _625_
*963 _315_
*964 _155_
*965 _315_
*966 _316_
*967 _150_
*968 _623_
*969 _316_
*970 _158_
*971 _318_
*972 _319_
*973 _160_
*974 _320_
*975 _322_
*976 _161_
*977 _321_
*978 _322_
*979 _162_
*980 _322_
*981 _324_
*982 _163_
*983 _323_
*984 _324_
*985 _15_
*986 _324_
*987 _641_
*988 _166_
*989 _327_
*990 _329_
*991 _167_
*992 _328_
*993 _329_
*994 _168_
*995 _329_
*996 _330_
*997 _170_
*998 _331_
*999 _335_
*1000 _171_
*1001 _332_
*1002 _333_
*1003 _172_
*1004 _333_
*1005 _335_
*1006 _173_
*1007 _334_
*1008 _335_
*1009 _16_
*1010 _335_
*1011 _642_
*1012 _174_
*1013 _336_
*1014 _337_
*1015 _176_
*1016 _338_
*1017 _340_
*1018 _177_
*1019 _339_
*1020 _340_
*1021 _180_
*1022 _342_
*1023 _343_
*1024 _183_
*1025 _345_
*1026 _346_
*1027 _184_
*1028 _346_
*1029 _348_
*1030 _185_
*1031 _347_
*1032 _348_
*1033 _17_
*1034 _348_
*1035 _643_
*1036 _186_
*1037 _349_
*1038 _350_
*1039 _192_
*1040 _355_
*1041 _358_
*1042 _193_
*1043 _356_
*1044 _358_
*1045 _194_
*1046 _357_
*1047 _358_
*1048 _18_
*1049 _358_
*1050 _644_
*1051 _195_
*1052 _359_
*1053 _373_
*1054 _196_
*1055 _360_
*1056 _361_
*1057 _199_
*1058 _363_
*1059 _364_
*1060 _204_
*1061 _368_
*1062 _369_
*1063 _206_
*1064 _370_
*1065 _372_
*1066 _207_
*1067 _371_
*1068 _372_
*1069 _208_
*1070 _372_
*1071 _373_
*1072 _19_
*1073 _373_
*1074 _645_
*1075 _209_
*1076 _374_
*1077 _375_
*1078 _212_
*1079 _377_
*1080 _378_
*1081 _214_
*1082 _379_
*1083 _382_
*1084 _215_
*1085 _380_
*1086 _382_
*1087 _216_
*1088 _381_
*1089 _382_
*1090 _20_
*1091 _382_
*1092 _646_
*1093 _218_
*1094 _384_
*1095 _385_
*1096 _225_
*1097 _391_
*1098 _392_
*1099 _226_
*1100 _392_
*1101 _394_
*1102 _227_
*1103 _393_
*1104 _394_
*1105 _21_
*1106 _394_
*1107 _647_
*1108 _233_
*1109 _400_
*1110 _406_
*1111 _234_
*1112 _401_
*1113 _404_
*1114 _237_
*1115 _404_
*1116 _406_
*1117 _238_
*1118 _405_
*1119 _406_
*1120 _22_
*1121 _406_
*1122 _648_
*1123 _241_
*1124 _409_
*1125 _417_
*1126 _242_
*1127 _410_
*1128 _416_
*1129 _243_
*1130 _411_
*1131 _412_
*1132 _244_
*1133 _412_
*1134 _416_
*1135 _247_
*1136 _415_
*1137 _416_
*1138 _248_
*1139 _416_
*1140 _417_
*1141 _253_
*1142 _421_
*1143 _431_
*1144 _255_
*1145 _423_
*1146 _425_
*1147 _256_
*1148 _424_
*1149 _425_
*1150 _257_
*1151 _425_
*1152 _429_
*1153 _258_
*1154 _426_
*1155 _429_
*1156 _259_
*1157 _427_
*1158 _428_
*1159 _260_
*1160 _428_
*1161 _429_
*1162 _262_
*1163 _430_
*1164 _431_
*1165 _263_
*1166 _431_
*1167 _433_
*1168 _264_
*1169 _432_
*1170 _433_
*1171 _23_
*1172 _433_
*1173 _649_
*1174 _267_
*1175 _436_
*1176 _437_
*1177 _269_
*1178 _438_
*1179 _441_
*1180 _270_
*1181 _439_
*1182 _441_
*1183 _271_
*1184 _440_
*1185 _441_
*1186 _24_
*1187 _441_
*1188 _650_
*1189 _275_
*1190 _445_
*1191 _446_
*1192 _279_
*1193 _449_
*1194 _454_
*1195 _280_
*1196 _450_
*1197 _452_
*1198 _281_
*1199 _451_
*1200 _452_
*1201 _283_
*1202 _453_
*1203 _454_
*1204 _284_
*1205 _454_
*1206 _456_
*1207 _285_
*1208 _455_
*1209 _456_
*1210 _25_
*1211 _456_
*1212 _651_
*1213 _286_
*1214 _457_
*1215 _468_
*1216 _287_
*1217 _458_
*1218 _468_
*1219 _288_
*1220 _459_
*1221 _460_
*1222 _289_
*1223 _460_
*1224 _464_
*1225 _290_
*1226 _461_
*1227 _463_
*1228 _291_
*1229 _462_
*1230 _463_
*1231 _293_
*1232 _464_
*1233 _468_
*1234 _294_
*1235 _465_
*1236 _467_
*1237 _295_
*1238 _466_
*1239 _467_
*1240 _296_
*1241 _467_
*1242 _468_
*1243 _26_
*1244 _468_
*1245 _652_
*1246 _297_
*1247 _469_
*1248 _471_
*1249 _298_
*1250 _470_
*1251 _471_
*1252 _27_
*1253 _471_
*1254 _653_
*1255 _299_
*1256 _472_
*1257 _474_
*1258 _300_
*1259 _473_
*1260 _474_
*1261 _28_
*1262 _474_
*1263 _654_
*1264 _301_
*1265 _475_
*1266 _476_
*1267 _29_
*1268 _476_
*1269 _655_
*1270 _302_
*1271 _477_
*1272 _478_
*1273 _30_
*1274 _478_
*1275 _656_
*1276 _303_
*1277 _479_
*1278 _480_
*1279 _31_
*1280 _480_
*1281 _657_
*1282 _304_
*1283 _481_
*1284 _482_
*1285 _32_
*1286 _482_
*1287 _658_
*1288 _305_
*1289 _483_
*1290 _484_
*1291 _33_
*1292 _484_
*1293 _659_
*1294 _306_
*1295 _485_
*1296 _486_
*1297 _34_
*1298 _486_
*1299 _660_
*1300 _307_
*1301 _487_
*1302 _488_
*1303 _35_
*1304 _488_
*1305 _661_
*1306 _308_
*1307 _489_
*1308 _490_
*1309 _36_
*1310 _490_
*1311 _662_
*1312 _309_
*1313 _491_
*1314 _493_
*1315 _310_
*1316 _492_
*1317 _493_
*1318 _37_
*1319 _493_
*1320 _663_
*1321 Atmp[4]
*1322 _657_
*1323 _494_
*1324 Atmp[6]
*1325 _659_
*1326 _496_
*1327 Atmp[8]
*1328 _661_
*1329 _498_
*1330 RdyCtl[4]
*1331 _630_
*1332 _499_
*1333 _46_
*1334 _501_
*1335 _502_
*1336 _47_
*1337 _502_
*1338 _503_
*1339 _48_
*1340 _503_
*1341 _504_
*1342 _49_
*1343 _504_
*1344 _505_
*1345 _50_
*1346 _505_
*1347 _508_
*1348 Atmp[2]
*1349 _655_
*1350 _506_
*1351 _52_
*1352 _507_
*1353 _508_
*1354 _53_
*1355 _508_
*1356 _510_
*1357 _54_
*1358 _509_
*1359 _510_
*1360 _311_[0]
*1361 _510_
*1362 _665_
*1363 Atmp[5]
*1364 _658_
*1365 _511_
*1366 Atmp[9]
*1367 _662_
*1368 _512_
*1369 _57_
*1370 _513_
*1371 _516_
*1372 Atmp[7]
*1373 _660_
*1374 _514_
*1375 _59_
*1376 _515_
*1377 _516_
*1378 _60_
*1379 _516_
*1380 _517_
*1381 _61_
*1382 _517_
*1383 _520_
*1384 Atmp[3]
*1385 _656_
*1386 _518_
*1387 _63_
*1388 _519_
*1389 _520_
*1390 _64_
*1391 _520_
*1392 _522_
*1393 _65_
*1394 _521_
*1395 _522_
*1396 _311_[1]
*1397 _522_
*1398 _666_
*1399 RdyCtl[5]
*1400 _631_
*1401 _523_
*1402 _67_
*1403 _524_
*1404 _528_
*1405 _69_
*1406 _526_
*1407 _527_
*1408 _70_
*1409 _527_
*1410 _528_
*1411 _71_
*1412 _528_
*1413 _530_
*1414 _72_
*1415 _529_
*1416 _530_
*1417 _38_
*1418 _530_
*1419 _664_
*1420 _1_
*1421 _534_
*1422 _627_
*1423 _2_
*1424 _535_
*1425 _628_
*1426 _3_
*1427 _536_
*1428 _629_
*1429 _4_
*1430 _537_
*1431 _630_
*1432 _5_
*1433 _538_
*1434 _631_
*1435 _6_
*1436 _539_
*1437 _632_
*1438 _77_
*1439 _542_
*1440 _543_
*1441 _7_
*1442 _543_
*1443 _633_
*1444 _82_
*1445 _548_
*1446 _552_
*1447 _83_
*1448 _549_
*1449 _550_
*1450 _84_
*1451 _550_
*1452 _551_
*1453 _85_
*1454 _551_
*1455 _552_
*1456 _86_
*1457 _552_
*1458 _554_
*1459 _87_
*1460 _553_
*1461 _554_
*1462 _8_
*1463 _554_
*1464 _634_
*1465 _90_
*1466 _557_
*1467 _558_
*1468 _93_
*1469 _560_
*1470 _561_
*1471 _94_
*1472 _561_
*1473 _563_
*1474 _95_
*1475 _562_
*1476 _563_
*1477 _9_
*1478 _563_
*1479 _635_
*1480 _96_
*1481 _564_
*1482 _572_
*1483 _100_
*1484 _568_
*1485 _571_
*1486 _101_
*1487 _569_
*1488 _570_
*1489 _102_
*1490 _570_
*1491 _571_
*1492 _103_
*1493 _571_
*1494 _572_
*1495 _10_
*1496 _572_
*1497 _636_
*1498 _105_
*1499 _574_
*1500 _575_
*1501 _110_
*1502 _579_
*1503 _583_
*1504 _113_
*1505 _582_
*1506 _583_
*1507 _114_
*1508 _583_
*1509 _585_
*1510 _115_
*1511 _584_
*1512 _585_
*1513 _11_
*1514 _585_
*1515 _637_
*1516 _120_
*1517 _590_
*1518 _594_
*1519 _121_
*1520 _591_
*1521 _592_
*1522 _122_
*1523 _592_
*1524 _594_
*1525 _123_
*1526 _593_
*1527 _594_
*1528 _12_
*1529 _594_
*1530 _638_
*1531 _124_
*1532 _595_
*1533 _597_
*1534 _125_
*1535 _596_
*1536 _597_
*1537 _132_
*1538 _603_
*1539 _607_
*1540 _133_
*1541 _604_
*1542 _606_
*1543 _135_
*1544 _606_
*1545 _607_
*1546 _136_
*1547 _607_
*1548 _609_
*1549 _137_
*1550 _608_
*1551 _609_
*1552 _13_
*1553 _609_
*1554 _639_
*1555 _140_
*1556 _612_
*1557 _613_
*1558 _142_
*1559 _614_
*1560 _617_
*1561 _143_
*1562 _615_
*1563 _617_
*1564 _144_
*1565 _616_
*1566 _617_
*1567 _14_
*1568 _617_
*1569 _640_
*1570 _145_
*1571 _618_
*1572 _623_
*1573 _146_
*1574 _619_
*1575 _621_
*1576 _148_
*1577 _621_
*1578 _622_
*1579 _151_
*1580 _624_
*1581 _625_
*1582 Aout[0]
*1583 _665_
*1584 Aout[1]
*1585 _666_
*1586 ISout
*1587 _667_
*1588 Vld
*1589 _668_

*PORTS
*154 I
*208 I
*425 I
*435 I
*439 I
*458 I
*477 I
*637 I
*668 I
*695 I
*718 I
*753 I
*788 I
*807 I
*826 I
*897 I
*904 I
*915 I
*918 I
*933 I
*944 I
*947 I
*1582 O
*1584 O
*1586 O
*1588 O

*D_NET *1 0.0112896
*CONN
*I *2:Y O *D BUFX2
*I *3:B I *L 0
*I *4:B I *L 0
*I *5:C I *L 0
*I *6:B I *L 0
*I *7:C I *L 0
*I *8:B I *L 0
*I *9:B I *L 0
*CAP
1 1_1 0.0006048
2 1_2 0.000252
3 1_3 0.0005544
4 1_4 0.0001008
5 1_5 0.001152
6 1_6 0.0001008
7 1_7 0.001656
8 1_8 0.001008
9 1_9 0.0001512
10 1_10 0.0029304
11 1_11 0.0005544
12 1_12 0.0006048
13 1_13 0.00162
*RES
1 *2:Y 1_1 3.08571
2 1_1 1_2 1.28571
3 1_2 1_3 2.82857
4 1_3 1_4 0.514286
5 1_4 *3:B 0
6 1_3 1_5 5.23214
7 1_5 1_6 0.514286
8 1_6 *4:B 0
9 1_5 1_7 8.21429
10 1_7 *5:C 0
11 1_2 1_8 3.5
12 1_8 1_9 0.771429
13 1_9 *6:B 0
14 1_8 1_10 13.1321
15 1_10 *7:C 0
16 1_1 1_11 2.82857
17 1_11 1_12 2.26429
18 1_12 *8:B 0
19 1_11 1_13 6.85714
20 1_13 *9:B 0
*END
*D_NET *10 0.008244
*CONN
*I *11:Y O *D BUFX2
*I *12:C I *L 0
*I *13:C I *L 0
*I *14:C I *L 0
*I *15:C I *L 0
*I *16:C I *L 0
*I *17:C I *L 0
*I *18:B I *L 0
*CAP
1 10_1 0.0001872
2 10_2 0.0019152
3 10_3 0.0022824
4 10_4 0.0004536
5 10_5 7.2e-05
6 10_6 0.000396
7 10_7 0.0008064
8 10_8 0.0002016
9 10_9 0.000108
10 10_10 0.0008064
11 10_11 0.0010152
*RES
1 *11:Y 10_1 0.896429
2 10_1 10_2 8.95
3 10_2 *12:C 0
4 10_1 10_3 8.00714
5 10_3 10_4 2.31429
6 10_4 *13:C 0
7 10_4 10_5 0.25
8 10_5 10_6 1.375
9 10_6 *14:C 0
10 10_5 10_7 4.11429
11 10_7 *15:C 0
12 10_3 10_8 1.02857
13 10_8 10_9 0.375
14 10_9 *16:C 0
15 10_8 10_10 4.11429
16 10_10 *17:C 0
17 10_10 10_11 4.59286
18 10_11 *18:B 0
*END
*D_NET *19 0.0084168
*CONN
*I *20:Y O *D BUFX2
*I *21:C I *L 0
*I *22:C I *L 0
*I *23:C I *L 0
*I *24:C I *L 0
*I *25:C I *L 0
*I *26:C I *L 0
*I *27:A I *L 0
*CAP
1 19_1 0.0010944
2 19_2 0.0006552
3 19_3 0.0004032
4 19_4 0.000252
5 19_5 0.0018792
6 19_6 0.0001008
7 19_7 0.001152
8 19_8 0.0003384
9 19_9 0.0008208
10 19_10 0.0009288
11 19_11 0.00018
12 19_12 0.000612
*RES
1 *20:Y 19_1 4.29286
2 19_1 19_2 3.34286
3 19_2 19_3 2.05714
4 19_3 19_4 1.28571
5 19_4 *21:C 0
6 19_3 19_5 8.825
7 19_5 19_6 0.514286
8 19_6 *22:C 0
9 19_5 19_7 5.23214
10 19_7 *23:C 0
11 19_7 19_8 1.66786
12 19_8 19_9 3.425
13 19_9 *24:C 0
14 19_8 19_10 3.8
15 19_10 *25:C 0
16 19_2 19_11 0.625
17 19_11 *26:C 0
18 19_1 19_12 2.125
19 19_12 *27:A 0
*END
*D_NET *28 0.0083592
*CONN
*I *29:Y O *D BUFX2
*I *30:B I *L 0
*I *31:C I *L 0
*I *32:C I *L 0
*I *33:C I *L 0
*I *34:B I *L 0
*I *35:C I *L 0
*I *36:C I *L 0
*CAP
1 28_1 0.000252
2 28_2 0.0007056
3 28_3 0.0014976
4 28_4 0.0006048
5 28_5 0.001476
6 28_6 3.6e-05
7 28_7 0.000324
8 28_8 0.000252
9 28_9 0.0012096
10 28_10 0.000216
11 28_11 0.0008928
12 28_12 3.6e-05
13 28_13 0.0008568
*RES
1 *29:Y 28_1 0.875
2 28_1 28_2 3.6
3 28_2 *30:B 0
4 28_1 28_3 7.17143
5 28_3 28_4 3.08571
6 28_4 *31:C 0
7 28_3 28_5 5.125
8 28_5 28_6 0.125
9 28_6 *32:C 0
10 28_6 28_7 1.125
11 28_7 28_8 0.875
12 28_8 *33:C 0
13 28_7 28_9 6.17143
14 28_9 28_10 0.75
15 28_10 *34:B 0
16 28_9 28_11 3.26429
17 28_11 28_12 0.125
18 28_12 *35:C 0
19 28_12 28_13 3.96071
20 28_13 *36:C 0
*END
*D_NET *37 0.0081432
*CONN
*I *38:Y O *D BUFX2
*I *39:B I *L 0
*I *40:B I *L 0
*I *41:B I *L 0
*I *42:B I *L 0
*I *43:B I *L 0
*I *44:B I *L 0
*I *45:B I *L 0
*CAP
1 37_1 0.0013104
2 37_2 0.0003096
3 37_3 0.0015048
4 37_4 0.0001512
5 37_5 0.000216
6 37_6 0.0002304
7 37_7 0.0006048
8 37_8 0.0004536
9 37_9 0.0011592
10 37_10 0.000216
11 37_11 0.0008568
12 37_12 0.0011304
*RES
1 *38:Y 37_1 6.68571
2 37_1 37_2 1.40357
3 37_2 *39:B 0
4 37_1 37_3 5.38929
5 37_3 37_4 0.771429
6 37_4 *40:B 0
7 37_3 37_5 0.75
8 37_5 37_6 0.882143
9 37_6 37_7 3.08571
10 37_7 *41:B 0
11 37_6 37_8 1.90357
12 37_8 *42:B 0
13 37_5 37_9 5.91429
14 37_9 37_10 0.75
15 37_10 *43:B 0
16 37_10 37_11 4.37143
17 37_11 *44:B 0
18 37_9 37_12 5.23929
19 37_12 *45:B 0
*END
*D_NET *46 0.0078048
*CONN
*I *47:Y O *D BUFX2
*I *48:B I *L 0
*I *49:B I *L 0
*I *50:B I *L 0
*I *51:B I *L 0
*I *52:B I *L 0
*I *53:B I *L 0
*I *54:B I *L 0
*CAP
1 46_1 0.0008568
2 46_2 0.00018
3 46_3 0.0006552
4 46_4 0.0005544
5 46_5 3.6e-05
6 46_6 0.0008928
7 46_7 0.0013896
8 46_8 0.0001008
9 46_9 0.001332
10 46_10 0.0002088
11 46_11 0.0007488
12 46_12 0.0008496
*RES
1 *47:Y 46_1 3.13929
2 46_1 46_2 0.625
3 46_2 *48:B 0
4 46_1 46_3 3.34286
5 46_3 46_4 2.82857
6 46_4 *49:B 0
7 46_4 46_5 0.125
8 46_5 46_6 4.08571
9 46_6 *50:B 0
10 46_5 46_7 6.79643
11 46_7 46_8 0.514286
12 46_8 *51:B 0
13 46_7 46_9 4.625
14 46_9 46_10 0.889286
15 46_10 *52:B 0
16 46_9 46_11 3.58571
17 46_11 *53:B 0
18 46_3 46_12 3.27857
19 46_12 *54:B 0
*END
*D_NET *55 0.00846
*CONN
*I *56:Y O *D CLKBUF1
*I *57:CLK I *L 0
*I *58:CLK I *L 0
*I *59:CLK I *L 0
*I *60:CLK I *L 0
*I *61:CLK I *L 0
*I *62:CLK I *L 0
*I *63:CLK I *L 0
*CAP
1 55_1 0.0002016
2 55_2 0.0004536
3 55_3 0.0001008
4 55_4 0.0004824
5 55_5 0.0001008
6 55_6 0.0016632
7 55_7 0.000792
8 55_8 3.6e-05
9 55_9 0.00036
10 55_10 0.001656
11 55_11 0.0011088
12 55_12 0.0003024
13 55_13 0.0012024
*RES
1 *56:Y 55_1 1.02857
2 55_1 55_2 2.31429
3 55_2 55_3 0.514286
4 55_3 *57:CLK 0
5 55_2 55_4 1.75714
6 55_4 55_5 0.514286
7 55_5 *58:CLK 0
8 55_4 55_6 8.48571
9 55_6 *59:CLK 0
10 55_1 55_7 2.75
11 55_7 55_8 0.125
12 55_8 *60:CLK 0
13 55_8 55_9 1.25
14 55_9 55_10 7.80357
15 55_10 *61:CLK 0
16 55_9 55_11 5.65714
17 55_11 55_12 1.54286
18 55_12 *62:CLK 0
19 55_11 55_13 4.66786
20 55_13 *63:CLK 0
*END
*D_NET *64 0.0121248
*CONN
*I *65:Y O *D CLKBUF1
*I *66:CLK I *L 0
*I *67:CLK I *L 0
*I *68:CLK I *L 0
*I *69:CLK I *L 0
*I *70:CLK I *L 0
*I *71:CLK I *L 0
*I *72:CLK I *L 0
*CAP
1 64_1 0.0010584
2 64_2 0.0008928
3 64_3 0.000504
4 64_4 0.00198
5 64_5 0.0001008
6 64_6 0.0006048
7 64_7 0.00252
8 64_8 0.0002016
9 64_9 0.000108
10 64_10 0.0013248
11 64_11 0.0013536
12 64_12 0.000252
13 64_13 0.001224
*RES
1 *65:Y 64_1 5.4
2 64_1 64_2 4.49643
3 64_2 64_3 2.16071
4 64_3 *66:CLK 0
5 64_2 64_4 9.75
6 64_4 64_5 0.514286
7 64_5 *67:CLK 0
8 64_4 64_6 2.26429
9 64_6 *68:CLK 0
10 64_1 64_7 8.75
11 64_7 64_8 1.02857
12 64_8 *69:CLK 0
13 64_7 64_9 0.375
14 64_9 64_10 5.175
15 64_10 *70:CLK 0
16 64_9 64_11 6.67143
17 64_11 64_12 1.28571
18 64_12 *71:CLK 0
19 64_11 64_13 4.66071
20 64_13 *72:CLK 0
*END
*D_NET *73 0.0076176
*CONN
*I *74:Y O *D CLKBUF1
*I *75:CLK I *L 0
*I *76:CLK I *L 0
*I *77:CLK I *L 0
*I *78:CLK I *L 0
*I *79:CLK I *L 0
*I *80:CLK I *L 0
*I *81:CLK I *L 0
*CAP
1 73_1 3.6e-05
2 73_2 0.0004896
3 73_3 0.0010368
4 73_4 0.0001008
5 73_5 7.2e-05
6 73_6 0.0004536
7 73_7 0.0013248
8 73_8 0.0001512
9 73_9 0.000288
10 73_10 0.0003672
11 73_11 0.0013608
12 73_12 0.0019368
*RES
1 *74:Y 73_1 0.125
2 73_1 73_2 2.02857
3 73_2 *75:CLK 0
4 73_2 73_3 3.76429
5 73_3 73_4 0.514286
6 73_4 *76:CLK 0
7 73_3 73_5 0.25
8 73_5 73_6 2.31429
9 73_6 *77:CLK 0
10 73_5 73_7 5.175
11 73_7 73_8 0.771429
12 73_8 *78:CLK 0
13 73_7 73_9 1
14 73_9 73_10 1.52143
15 73_10 *79:CLK 0
16 73_9 73_11 6.94286
17 73_11 *80:CLK 0
18 73_1 73_12 9.76429
19 73_12 *81:CLK 0
*END
*D_NET *82 0.0066168
*CONN
*I *83:Y O *D BUFX2
*I *84:B I *L 0
*I *85:B I *L 0
*I *86:A I *L 0
*I *87:B I *L 0
*I *88:B I *L 0
*I *89:B I *L 0
*CAP
1 82_1 0.0004536
2 82_2 0.000216
3 82_3 0.000684
4 82_4 0.0003528
5 82_5 0.0018576
6 82_6 0.0001008
7 82_7 0.0006552
8 82_8 0.0001008
9 82_9 0.001044
10 82_10 3.6e-05
11 82_11 0.001116
*RES
1 *83:Y 82_1 2.31429
2 82_1 82_2 0.75
3 82_2 *84:B 0
4 82_1 82_3 3.19643
5 82_3 82_4 1.8
6 82_4 *85:B 0
7 82_3 82_5 7.18929
8 82_5 82_6 0.514286
9 82_6 *86:A 0
10 82_5 82_7 3.34286
11 82_7 82_8 0.514286
12 82_8 *87:B 0
13 82_7 82_9 4.85714
14 82_9 82_10 0.125
15 82_10 *88:B 0
16 82_10 82_11 4.69643
17 82_11 *89:B 0
*END
*D_NET *90 0.005868
*CONN
*I *91:Y O *D BUFX2
*I *92:B I *L 0
*I *93:B I *L 0
*I *94:B I *L 0
*I *95:C I *L 0
*I *96:A I *L 0
*I *97:B I *L 0
*CAP
1 90_1 0.000288
2 90_2 0.00036
3 90_3 3.6e-05
4 90_4 0.0001944
5 90_5 0.0007056
6 90_6 0.0009792
7 90_7 0.0013104
8 90_8 0.000108
9 90_9 0.0012096
10 90_10 0.000144
11 90_11 0.0005328
*RES
1 *91:Y 90_1 1
2 90_1 90_2 1.25
3 90_2 90_3 0.125
4 90_3 *92:B 0
5 90_3 90_4 0.757143
6 90_4 90_5 3.6
7 90_5 *93:B 0
8 90_4 90_6 3.64643
9 90_6 *94:B 0
10 90_1 90_7 6.68571
11 90_7 90_8 0.375
12 90_8 *95:C 0
13 90_7 90_9 6.17143
14 90_9 90_10 0.5
15 90_10 *96:A 0
16 90_9 90_11 2.01429
17 90_11 *97:B 0
*END
*D_NET *98 0.013824
*CONN
*I *99:Y O *D BUFX2
*I *100:A I *L 0
*I *101:C I *L 0
*I *102:C I *L 0
*I *103:B I *L 0
*I *104:B I *L 0
*I *105:C I *L 0
*CAP
1 98_1 0.0013248
2 98_2 0.0010584
3 98_3 0.0003024
4 98_4 0.0023904
5 98_5 0.000252
6 98_6 0.0019008
7 98_7 0.0002448
8 98_8 0.0015408
9 98_9 0.0018
10 98_10 0.0002808
11 98_11 0.0027288
*RES
1 *99:Y 98_1 6.40714
2 98_1 98_2 3.75714
3 98_2 98_3 1.54286
4 98_3 *100:A 0
5 98_2 98_4 11.2571
6 98_4 98_5 0.875
7 98_5 *101:C 0
8 98_4 98_6 9.63929
9 98_6 98_7 1.01429
10 98_7 *102:C 0
11 98_6 98_8 5.51429
12 98_8 *103:B 0
13 98_1 98_9 9.125
14 98_9 98_10 1.13929
15 98_10 *104:B 0
16 98_9 98_11 10.05
17 98_11 *105:C 0
*END
*D_NET *106 0.0064872
*CONN
*I *107:Y O *D BUFX2
*I *108:B I *L 0
*I *109:B I *L 0
*I *110:B I *L 0
*I *111:B I *L 0
*I *112:B I *L 0
*I *113:A I *L 0
*CAP
1 106_1 0.0002088
2 106_2 0.0006048
3 106_3 0.0001512
4 106_4 0.000972
5 106_5 0.000684
6 106_6 0.000324
7 106_7 3.6e-05
8 106_8 0.0007272
9 106_9 0.0008424
10 106_10 0.000144
11 106_11 0.0017928
*RES
1 *107:Y 106_1 0.889286
2 106_1 106_2 3.08571
3 106_2 106_3 0.771429
4 106_3 *108:B 0
5 106_2 106_4 3.78571
6 106_4 *109:B 0
7 106_1 106_5 2.375
8 106_5 106_6 1.125
9 106_6 106_7 0.125
10 106_7 *110:B 0
11 106_7 106_8 2.77143
12 106_8 *111:B 0
13 106_5 106_9 4.23929
14 106_9 106_10 0.5
15 106_10 *112:B 0
16 106_9 106_11 6.38929
17 106_11 *113:A 0
*END
*D_NET *114 0.00684
*CONN
*I *115:Y O *D BUFX2
*I *116:C I *L 0
*I *117:C I *L 0
*I *118:C I *L 0
*I *119:C I *L 0
*I *120:C I *L 0
*I *121:C I *L 0
*CAP
1 114_1 0.0008568
2 114_2 0.0008064
3 114_3 0.00018
4 114_4 0.0003024
5 114_5 0.0010584
6 114_6 0.0003528
7 114_7 0.0009144
8 114_8 0.0001008
9 114_9 0.0006552
10 114_10 0.0016128
*RES
1 *115:Y 114_1 3.96071
2 114_1 *116:C 0
3 114_1 114_2 4.11429
4 114_2 114_3 0.625
5 114_3 *117:C 0
6 114_2 114_4 1.54286
7 114_4 114_5 5.4
8 114_5 114_6 1.38929
9 114_6 *118:C 0
10 114_5 114_7 4.07857
11 114_7 114_8 0.514286
12 114_8 *119:C 0
13 114_7 114_9 3.34286
14 114_9 *120:C 0
15 114_4 114_10 6.175
16 114_10 *121:C 0
*END
*D_NET *122 0.008208
*CONN
*I *123:Y O *D BUFX2
*I *124:A I *L 0
*I *125:C I *L 0
*I *126:C I *L 0
*I *127:C I *L 0
*I *128:C I *L 0
*I *129:C I *L 0
*CAP
1 122_1 0.0004032
2 122_2 0.0010512
3 122_3 3.6e-05
4 122_4 0.000684
5 122_5 5.04e-05
6 122_6 0.0002016
7 122_7 0.0012888
8 122_8 0.0017856
9 122_9 0.000648
10 122_10 0.0008496
11 122_11 0.0012096
*RES
1 *123:Y 122_1 2.05714
2 122_1 122_2 5.12857
3 122_2 *124:A 0
4 122_1 122_3 0.125
5 122_3 122_4 2.375
6 122_4 122_5 0.257143
7 122_5 122_6 1.02857
8 122_6 *125:C 0
9 122_5 122_7 6.28214
10 122_7 *126:C 0
11 122_4 122_8 7.76071
12 122_8 *127:C 0
13 122_3 122_9 2.25
14 122_9 122_10 3.68929
15 122_10 *128:C 0
16 122_9 122_11 6.17143
17 122_11 *129:C 0
*END
*D_NET *130 0.0080568
*CONN
*I *131:Y O *D BUFX2
*I *132:A I *L 0
*I *133:B I *L 0
*I *134:B I *L 0
*I *135:B I *L 0