* NGSPICE file created from nco.ext - technology: scmos

* Black-box entry subcircuit for FILL abstract view
.subckt FILL vdd gnd
.ends

* Black-box entry subcircuit for DFFPOSX1 abstract view
.subckt DFFPOSX1 D CLK Q vdd gnd
.ends

* Black-box entry subcircuit for NAND2X1 abstract view
.subckt NAND2X1 A B Y vdd gnd
.ends

* Black-box entry subcircuit for INVX1 abstract view
.subckt INVX1 A Y vdd gnd
.ends

* Black-box entry subcircuit for OR2X2 abstract view
.subckt OR2X2 A B Y vdd gnd
.ends

* Black-box entry subcircuit for AND2X2 abstract view
.subckt AND2X2 A B Y vdd gnd
.ends

* Black-box entry subcircuit for NAND3X1 abstract view
.subckt NAND3X1 A B C Y vdd gnd
.ends

* Black-box entry subcircuit for MUX2X1 abstract view
.subckt MUX2X1 A B S Y vdd gnd
.ends

* Black-box entry subcircuit for BUFX2 abstract view
.subckt BUFX2 A Y vdd gnd
.ends

* Black-box entry subcircuit for OAI21X1 abstract view
.subckt OAI21X1 A B C Y vdd gnd
.ends

* Black-box entry subcircuit for INVX2 abstract view
.subckt INVX2 A Y vdd gnd
.ends

* Black-box entry subcircuit for AOI21X1 abstract view
.subckt AOI21X1 A B C Y vdd gnd
.ends

* Black-box entry subcircuit for OAI22X1 abstract view
.subckt OAI22X1 A B C D Y vdd gnd
.ends

* Black-box entry subcircuit for NOR2X1 abstract view
.subckt NOR2X1 A B Y vdd gnd
.ends

* Black-box entry subcircuit for AOI22X1 abstract view
.subckt AOI22X1 A B C D Y vdd gnd
.ends

* Black-box entry subcircuit for CLKBUF1 abstract view
.subckt CLKBUF1 A Y vdd gnd
.ends

* Black-box entry subcircuit for NOR3X1 abstract view
.subckt NOR3X1 A B C Y vdd gnd
.ends

* Black-box entry subcircuit for INVX8 abstract view
.subckt INVX8 A Y vdd gnd
.ends

* Black-box entry subcircuit for INVX4 abstract view
.subckt INVX4 A Y vdd gnd
.ends

.subckt nco gnd vdd Dout[11] Dout[10] Dout[9] Dout[8] Dout[7] Dout[6] Dout[5] Dout[4]
+ Dout[3] Dout[2] Dout[1] Dout[0] En FCW[19] FCW[18] FCW[17] FCW[16] FCW[15] FCW[14]
+ FCW[13] FCW[12] FCW[11] FCW[10] FCW[9] FCW[8] FCW[7] FCW[6] FCW[5] FCW[4] FCW[3]
+ FCW[2] FCW[1] FCW[0] Vld clk selSign selXY
XFILL_1__13156_ vdd gnd FILL
XFILL_0__12906_ vdd gnd FILL
XFILL_2__9369_ vdd gnd FILL
XFILL_1__10368_ vdd gnd FILL
XFILL_0__13886_ vdd gnd FILL
XFILL_0__7404_ vdd gnd FILL
XFILL_0__8384_ vdd gnd FILL
XFILL_1__12107_ vdd gnd FILL
XFILL_1__13087_ vdd gnd FILL
XFILL_0__12837_ vdd gnd FILL
XFILL_1__10299_ vdd gnd FILL
XFILL_0__7335_ vdd gnd FILL
X_7963_ _7963_/D _7963_/CLK _7963_/Q vdd gnd DFFPOSX1
XFILL_1__12038_ vdd gnd FILL
XFILL_2__11589_ vdd gnd FILL
XFILL_0__12768_ vdd gnd FILL
X_9702_ _9702_/A _9702_/B _9702_/Y vdd gnd NAND2X1
XFILL_0__7266_ vdd gnd FILL
X_7894_ _7894_/A _7894_/Y vdd gnd INVX1
XFILL_0__11719_ vdd gnd FILL
XFILL_0__9005_ vdd gnd FILL
XFILL_0__12699_ vdd gnd FILL
XFILL_0__7197_ vdd gnd FILL
X_9633_ _9633_/A _9633_/B _9633_/Y vdd gnd OR2X2
XFILL_0__14438_ vdd gnd FILL
XFILL_1__13989_ vdd gnd FILL
X_9564_ _9564_/A _9564_/Y vdd gnd INVX1
XFILL_0__14369_ vdd gnd FILL
X_8515_ _8515_/A _8515_/B _8515_/Y vdd gnd AND2X2
X_9495_ _9495_/A _9495_/B _9495_/C _9495_/Y vdd gnd NAND3X1
XFILL_0__9907_ vdd gnd FILL
XFILL_1__8700_ vdd gnd FILL
X_8446_ _8446_/A _8446_/Y vdd gnd INVX1
XFILL_1__9680_ vdd gnd FILL
XFILL_1__8631_ vdd gnd FILL
X_8377_ _8377_/A _8377_/B _8377_/Y vdd gnd NAND2X1
X_7328_ _7328_/A _7328_/Y vdd gnd INVX1
XFILL_1__8562_ vdd gnd FILL
XFILL_1__7513_ vdd gnd FILL
X_7259_ _7259_/A _7259_/Y vdd gnd INVX1
XFILL_1__8493_ vdd gnd FILL
XFILL_1__7444_ vdd gnd FILL
XFILL_2_BUFX2_insert315 vdd gnd FILL
XFILL_1__7375_ vdd gnd FILL
XFILL_2_BUFX2_insert337 vdd gnd FILL
X_11900_ _11900_/A _11900_/Y vdd gnd INVX1
XFILL_1__9114_ vdd gnd FILL
X_12880_ _12880_/A _12880_/Y vdd gnd INVX1
X_11831_ _11831_/A _11831_/B _11831_/S _11831_/Y vdd gnd MUX2X1
XFILL257550x28950 vdd gnd FILL
XFILL_1__9045_ vdd gnd FILL
X_14550_ _14550_/D _14550_/CLK _14550_/Q vdd gnd DFFPOSX1
X_11762_ _11762_/A _11762_/B _11762_/Y vdd gnd NAND2X1
X_13501_ _13501_/D _13501_/CLK _13501_/Q vdd gnd DFFPOSX1
X_10713_ _10713_/D _10713_/CLK _10713_/Q vdd gnd DFFPOSX1
XBUFX2_insert303 BUFX2_insert303/A BUFX2_insert303/Y vdd gnd BUFX2
X_14481_ _14481_/A _14481_/B _14481_/C _14481_/Y vdd gnd OAI21X1
XBUFX2_insert314 BUFX2_insert314/A BUFX2_insert314/Y vdd gnd BUFX2
X_11693_ _11693_/A _11693_/Y vdd gnd INVX2
XBUFX2_insert325 BUFX2_insert325/A BUFX2_insert325/Y vdd gnd BUFX2
XBUFX2_insert336 BUFX2_insert336/A BUFX2_insert336/Y vdd gnd BUFX2
X_13432_ _13432_/D _13432_/CLK _13432_/Q vdd gnd DFFPOSX1
XBUFX2_insert347 BUFX2_insert347/A BUFX2_insert347/Y vdd gnd BUFX2
X_10644_ _10644_/A _10644_/B _10644_/C _10644_/Y vdd gnd OAI21X1
XBUFX2_insert358 BUFX2_insert358/A BUFX2_insert358/Y vdd gnd BUFX2
XFILL_1__9947_ vdd gnd FILL
XBUFX2_insert369 BUFX2_insert369/A BUFX2_insert369/Y vdd gnd BUFX2
X_10575_ _10575_/A _10575_/B _10575_/C _10575_/Y vdd gnd AOI21X1
X_13363_ _13363_/A _13363_/B _13363_/Y vdd gnd AND2X2
XFILL_1__9878_ vdd gnd FILL
X_12314_ _12314_/A _12314_/Y vdd gnd INVX1
XFILL_2__7622_ vdd gnd FILL
XFILL_1__8829_ vdd gnd FILL
X_13294_ _13294_/A _13294_/B _13294_/Y vdd gnd NAND2X1
XFILL_0__10050_ vdd gnd FILL
XFILL_2__10960_ vdd gnd FILL
X_12245_ _12245_/A _12245_/B _12245_/C _12245_/Y vdd gnd OAI21X1
XFILL_2__7553_ vdd gnd FILL
XFILL_1__11340_ vdd gnd FILL
XFILL_2__10891_ vdd gnd FILL
X_12176_ _12176_/A _12176_/B _12176_/Y vdd gnd NAND2X1
XFILL_1__11271_ vdd gnd FILL
XFILL_2__7484_ vdd gnd FILL
X_11127_ _11127_/A _11127_/B _11127_/C _11127_/Y vdd gnd OAI21X1
XFILL_1__13010_ vdd gnd FILL
XFILL_1__10222_ vdd gnd FILL
XFILL_0__13740_ vdd gnd FILL
XFILL_0__10952_ vdd gnd FILL
X_11058_ _11058_/A _11058_/B _11058_/C _11058_/Y vdd gnd NAND3X1
XFILL_1__10153_ vdd gnd FILL
XFILL_0__13671_ vdd gnd FILL
X_10009_ _10009_/A _10009_/Y vdd gnd INVX1
XFILL_0__10883_ vdd gnd FILL
XFILL_2__8105_ vdd gnd FILL
XFILL_0__12622_ vdd gnd FILL
XFILL_0__7120_ vdd gnd FILL
XFILL_1__10084_ vdd gnd FILL
X_14817_ _14817_/A _14817_/B _14817_/Y vdd gnd NAND2X1
XFILL_2__8036_ vdd gnd FILL
XFILL_1__13912_ vdd gnd FILL
X_14748_ _14748_/A _14748_/B _14748_/C _14748_/Y vdd gnd AOI21X1
XFILL_2__10325_ vdd gnd FILL
XFILL_0__11504_ vdd gnd FILL
XFILL_1__13843_ vdd gnd FILL
XFILL_0__12484_ vdd gnd FILL
X_14679_ _14679_/A _14679_/B _14679_/C _14679_/Y vdd gnd AOI21X1
XFILL_2__10256_ vdd gnd FILL
XFILL_0__14223_ vdd gnd FILL
XFILL_0__11435_ vdd gnd FILL
XFILL_1__10986_ vdd gnd FILL
XFILL_1__13774_ vdd gnd FILL
XFILL_2__8938_ vdd gnd FILL
XFILL_2__10187_ vdd gnd FILL
XFILL_1__12725_ vdd gnd FILL
XFILL_0__14154_ vdd gnd FILL
X_8300_ _8300_/A _8300_/Y vdd gnd INVX1
XFILL_0__11366_ vdd gnd FILL
X_9280_ _9280_/A _9280_/B _9280_/C _9280_/Y vdd gnd OAI21X1
XFILL_0__13105_ vdd gnd FILL
XFILL_1__12656_ vdd gnd FILL
XFILL_0__10317_ vdd gnd FILL
XFILL_0__14085_ vdd gnd FILL
X_8231_ _8231_/A _8231_/B _8231_/C _8231_/Y vdd gnd OAI21X1
XFILL_0__11297_ vdd gnd FILL
XFILL_0__7884_ vdd gnd FILL
XFILL_1__11607_ vdd gnd FILL
XFILL_0__13036_ vdd gnd FILL
XFILL_0__10248_ vdd gnd FILL
XFILL_0__9623_ vdd gnd FILL
X_8162_ _8162_/A _8162_/B _8162_/Y vdd gnd NAND2X1
XFILL_1__14326_ vdd gnd FILL
XFILL_1__11538_ vdd gnd FILL
XFILL_2__13877_ vdd gnd FILL
X_7113_ _7113_/A _7113_/B _7113_/Y vdd gnd NAND2X1
XFILL_0__10179_ vdd gnd FILL
XFILL_0__9554_ vdd gnd FILL
X_8093_ _8093_/A _8093_/B _8093_/C _8093_/D _8093_/Y vdd gnd OAI22X1
XFILL_1__14257_ vdd gnd FILL
XFILL_1__11469_ vdd gnd FILL
XFILL_0__8505_ vdd gnd FILL
XFILL_0__9485_ vdd gnd FILL
XFILL_1__13208_ vdd gnd FILL
XFILL_0__13938_ vdd gnd FILL
XFILL_0__8436_ vdd gnd FILL
XFILL_1__13139_ vdd gnd FILL
XFILL_1__7160_ vdd gnd FILL
XFILL_0__13869_ vdd gnd FILL
XFILL_0__8367_ vdd gnd FILL
X_8995_ _8995_/A _8995_/B _8995_/S _8995_/Y vdd gnd MUX2X1
XFILL_0__7318_ vdd gnd FILL
XFILL_1__7091_ vdd gnd FILL
X_7946_ _7946_/D _7946_/CLK _7946_/Q vdd gnd DFFPOSX1
XFILL_0__8298_ vdd gnd FILL
XFILL_0__7249_ vdd gnd FILL
X_7877_ _7877_/A _7877_/B _7877_/C _7877_/Y vdd gnd OAI21X1
X_9616_ _9616_/A _9616_/B _9616_/C _9616_/Y vdd gnd OAI21X1
X_9547_ _9547_/A _9547_/B _9547_/Y vdd gnd AND2X2
XFILL_1__9732_ vdd gnd FILL
X_9478_ _9478_/A _9478_/B _9478_/C _9478_/Y vdd gnd AOI21X1
X_10360_ _10360_/A _10360_/B _10360_/Y vdd gnd NAND2X1
XFILL_1__9663_ vdd gnd FILL
X_8429_ _8429_/A _8429_/B _8429_/Y vdd gnd NOR2X1
X_10291_ _10291_/A _10291_/B _10291_/Y vdd gnd OR2X2
XFILL_1__8614_ vdd gnd FILL
XFILL_1__9594_ vdd gnd FILL
X_12030_ _12030_/A _12030_/B _12030_/C _12030_/Y vdd gnd NAND3X1
XFILL_1__8545_ vdd gnd FILL
XFILL_1__8476_ vdd gnd FILL
X_13981_ _13981_/A _13981_/B _13981_/Y vdd gnd NAND2X1
XFILL_1__7427_ vdd gnd FILL
XFILL_2_BUFX2_insert134 vdd gnd FILL
X_12932_ _12932_/A _12932_/B _12932_/C _12932_/Y vdd gnd OAI21X1
XFILL_1__7358_ vdd gnd FILL
XFILL_2_BUFX2_insert156 vdd gnd FILL
XFILL_2_BUFX2_insert167 vdd gnd FILL
XFILL_2_BUFX2_insert189 vdd gnd FILL
X_12863_ _12863_/A _12863_/B _12863_/C _12863_/Y vdd gnd OAI21X1
XFILL_1__7289_ vdd gnd FILL
X_14602_ _14602_/A _14602_/Y vdd gnd INVX1
X_11814_ _11814_/A _11814_/B _11814_/S _11814_/Y vdd gnd MUX2X1
XFILL_1__9028_ vdd gnd FILL
X_12794_ _12794_/A _12794_/B _12794_/C _12794_/Y vdd gnd AOI21X1
X_14533_ _14533_/D _14533_/CLK _14533_/Q vdd gnd DFFPOSX1
XFILL_2__10110_ vdd gnd FILL
X_11745_ _11745_/A _11745_/B _11745_/C _11745_/Y vdd gnd OAI21X1
XBUFX2_insert111 BUFX2_insert111/A BUFX2_insert111/Y vdd gnd BUFX2
XFILL_1__10840_ vdd gnd FILL
XBUFX2_insert122 BUFX2_insert122/A BUFX2_insert122/Y vdd gnd BUFX2
XBUFX2_insert133 BUFX2_insert133/A BUFX2_insert133/Y vdd gnd BUFX2
X_14464_ _14464_/A _14464_/B _14464_/C _14464_/Y vdd gnd OAI21X1
XFILL_2__10041_ vdd gnd FILL
XBUFX2_insert144 BUFX2_insert144/A BUFX2_insert144/Y vdd gnd BUFX2
X_11676_ _11676_/D _11676_/CLK _11676_/Q vdd gnd DFFPOSX1
XBUFX2_insert155 BUFX2_insert155/A BUFX2_insert155/Y vdd gnd BUFX2
XFILL_0__11220_ vdd gnd FILL
XBUFX2_insert166 BUFX2_insert166/A BUFX2_insert166/Y vdd gnd BUFX2
XFILL_1__10771_ vdd gnd FILL
XBUFX2_insert177 BUFX2_insert177/A BUFX2_insert177/Y vdd gnd BUFX2
X_13415_ _13415_/A _13415_/B _13415_/C _13415_/Y vdd gnd OAI21X1
X_10627_ _10627_/A _10627_/B _10627_/C _10627_/Y vdd gnd OAI21X1
XBUFX2_insert188 BUFX2_insert188/A BUFX2_insert188/Y vdd gnd BUFX2
X_14395_ _14395_/A _14395_/B _14395_/C _14395_/Y vdd gnd NAND3X1
XFILL_1__12510_ vdd gnd FILL
XBUFX2_insert199 BUFX2_insert199/A BUFX2_insert199/Y vdd gnd BUFX2
XFILL_0__11151_ vdd gnd FILL
X_13346_ _13346_/A _13346_/B _13346_/Y vdd gnd NOR2X1
X_10558_ _10558_/A _10558_/B _10558_/Y vdd gnd NAND2X1
XFILL_0__10102_ vdd gnd FILL
XFILL_1__12441_ vdd gnd FILL
XFILL_0__11082_ vdd gnd FILL
X_13277_ _13277_/A _13277_/B _13277_/Y vdd gnd OR2X2
X_10489_ _10489_/A _10489_/B _10489_/Y vdd gnd NOR2X1
XFILL_0__10033_ vdd gnd FILL
XFILL_0__14910_ vdd gnd FILL
XFILL_1__12372_ vdd gnd FILL
XFILL_2__10943_ vdd gnd FILL
X_12228_ _12228_/A _12228_/B _12228_/Y vdd gnd NAND2X1
XFILL_2__7536_ vdd gnd FILL
XFILL_1__14111_ vdd gnd FILL
XFILL_1__11323_ vdd gnd FILL
XFILL_0__14841_ vdd gnd FILL
XFILL_2__10874_ vdd gnd FILL
X_12159_ _12159_/A _12159_/B _12159_/Y vdd gnd OR2X2
XFILL_1__14042_ vdd gnd FILL
XFILL_2__7467_ vdd gnd FILL
XFILL_1__11254_ vdd gnd FILL
XFILL_0__14772_ vdd gnd FILL
XFILL_0__11984_ vdd gnd FILL
XFILL_0__9270_ vdd gnd FILL
XFILL_1__10205_ vdd gnd FILL
XFILL_1__11185_ vdd gnd FILL
XFILL_2__7398_ vdd gnd FILL
XFILL_0__10935_ vdd gnd FILL
XFILL_0__13723_ vdd gnd FILL
XFILL_0__8221_ vdd gnd FILL
XFILL_1__10136_ vdd gnd FILL
XFILL_2__12475_ vdd gnd FILL
XFILL_0__13654_ vdd gnd FILL
XFILL_0__10866_ vdd gnd FILL
X_7800_ _7800_/A _7800_/B _7800_/Y vdd gnd NOR2X1
XFILL_0__8152_ vdd gnd FILL
X_8780_ _8780_/A _8780_/B _8780_/C _8780_/Y vdd gnd OAI21X1
XFILL_1__10067_ vdd gnd FILL
XFILL_0__13585_ vdd gnd FILL
XFILL_0__7103_ vdd gnd FILL
X_7731_ _7731_/A _7731_/Y vdd gnd INVX1
XFILL_0__8083_ vdd gnd FILL
XFILL_0__10797_ vdd gnd FILL
XFILL_2__8019_ vdd gnd FILL
X_7662_ _7662_/A _7662_/B _7662_/Y vdd gnd OR2X2
XFILL_2__10308_ vdd gnd FILL
XFILL_1__13826_ vdd gnd FILL
XFILL_0__12467_ vdd gnd FILL
X_9401_ _9401_/A _9401_/B _9401_/Y vdd gnd NAND2X1
X_7593_ _7593_/A _7593_/B _7593_/C _7593_/Y vdd gnd AOI21X1
XFILL_2__10239_ vdd gnd FILL
XFILL_2__13027_ vdd gnd FILL
XFILL_0__11418_ vdd gnd FILL
XFILL_1__13757_ vdd gnd FILL
XFILL_1__10969_ vdd gnd FILL
XFILL_0__12398_ vdd gnd FILL
X_9332_ _9332_/A _9332_/B _9332_/C _9332_/Y vdd gnd OAI21X1
XFILL_0__8985_ vdd gnd FILL
XFILL_0__14137_ vdd gnd FILL
XFILL_1__12708_ vdd gnd FILL
XFILL_0__11349_ vdd gnd FILL
XFILL_1__13688_ vdd gnd FILL
X_9263_ _9263_/A _9263_/B _9263_/C _9263_/Y vdd gnd OAI21X1
XFILL_0__14068_ vdd gnd FILL
XFILL_1__12639_ vdd gnd FILL
X_8214_ _8214_/A _8214_/B _8214_/C _8214_/Y vdd gnd OAI21X1
X_9194_ _9194_/A _9194_/B _9194_/C _9194_/Y vdd gnd OAI21X1
XFILL_0__7867_ vdd gnd FILL
XFILL_0__13019_ vdd gnd FILL
XFILL_0__9606_ vdd gnd FILL
X_8145_ _8145_/A _8145_/B _8145_/C _8145_/Y vdd gnd NAND3X1
XFILL_0__7798_ vdd gnd FILL
XFILL_1__14309_ vdd gnd FILL
XFILL_0__9537_ vdd gnd FILL
XFILL_1__8330_ vdd gnd FILL
X_8076_ _8076_/A _8076_/B _8076_/Y vdd gnd NAND2X1
XFILL_0__9468_ vdd gnd FILL
XFILL_1__8261_ vdd gnd FILL
XFILL_1__7212_ vdd gnd FILL
XFILL_0__8419_ vdd gnd FILL
XFILL_0__9399_ vdd gnd FILL
XFILL_1__8192_ vdd gnd FILL
XFILL_1__7143_ vdd gnd FILL
X_8978_ _8978_/A _8978_/Y vdd gnd INVX1
XFILL_1_BUFX2_insert108 vdd gnd FILL
XFILL_1_BUFX2_insert119 vdd gnd FILL
XFILL_1__7074_ vdd gnd FILL
X_7929_ _7929_/D _7929_/CLK _7929_/Q vdd gnd DFFPOSX1
X_11530_ _11530_/A _11530_/B _11530_/Y vdd gnd NOR2X1
X_11461_ _11461_/A _11461_/B _11461_/C _11461_/Y vdd gnd OAI21X1
X_13200_ _13200_/A _13200_/B _13200_/C _13200_/Y vdd gnd OAI21X1
X_10412_ _10412_/A _10412_/B _10412_/Y vdd gnd NOR2X1
XFILL_1__9715_ vdd gnd FILL
X_11392_ _11392_/A _11392_/B _11392_/C _11392_/Y vdd gnd AOI21X1
X_14180_ _14180_/D _14180_/CLK _14180_/Q vdd gnd DFFPOSX1
X_13131_ _13131_/A _13131_/B _13131_/C _13131_/Y vdd gnd OAI21X1
X_10343_ _10343_/A _10343_/B _10343_/C _10343_/Y vdd gnd OAI21X1
XFILL_1__9646_ vdd gnd FILL
X_10274_ _10274_/A _10274_/B _10274_/C _10274_/Y vdd gnd AOI21X1
X_13062_ _13062_/A _13062_/B _13062_/Y vdd gnd OR2X2
XFILL_1__9577_ vdd gnd FILL
X_12013_ _12013_/A _12013_/B _12013_/C _12013_/Y vdd gnd OAI21X1
XFILL_1__8528_ vdd gnd FILL
XFILL_1__8459_ vdd gnd FILL
X_13964_ _13964_/A _13964_/B _13964_/C _13964_/D _13964_/Y vdd gnd AOI22X1
X_12915_ _12915_/A _12915_/Y vdd gnd INVX1
X_13895_ _13895_/A _13895_/B _13895_/Y vdd gnd NAND2X1
XFILL257250x93750 vdd gnd FILL
XFILL_2__12260_ vdd gnd FILL
XFILL_0__10651_ vdd gnd FILL
XFILL_1__12990_ vdd gnd FILL
X_12846_ _12846_/A _12846_/B _12846_/C _12846_/Y vdd gnd NAND3X1
XFILL_2__12191_ vdd gnd FILL
XFILL_1__11941_ vdd gnd FILL
XFILL_0__13370_ vdd gnd FILL
XFILL_0__10582_ vdd gnd FILL
X_12777_ _12777_/A _12777_/B _12777_/Y vdd gnd NAND2X1
XFILL_0__12321_ vdd gnd FILL
XFILL_1__14660_ vdd gnd FILL
XFILL_1__11872_ vdd gnd FILL
X_14516_ _14516_/D _14516_/CLK _14516_/Q vdd gnd DFFPOSX1
X_11728_ _11728_/A _11728_/Y vdd gnd INVX1
XFILL_1__13611_ vdd gnd FILL
XFILL_0__12252_ vdd gnd FILL
XFILL_1__10823_ vdd gnd FILL
XFILL_1__14591_ vdd gnd FILL
X_14447_ _14447_/A _14447_/B _14447_/Y vdd gnd NAND2X1
X_11659_ _11659_/D _11659_/CLK _11659_/Q vdd gnd DFFPOSX1
XFILL_2__9755_ vdd gnd FILL
XFILL_0__11203_ vdd gnd FILL
XFILL_1__13542_ vdd gnd FILL
XFILL_0__12183_ vdd gnd FILL
X_14378_ _14378_/A _14378_/B _14378_/C _14378_/Y vdd gnd OAI21X1
XFILL_0__8770_ vdd gnd FILL
XFILL_2__14832_ vdd gnd FILL
XFILL_2__9686_ vdd gnd FILL
XFILL_0__11134_ vdd gnd FILL
XFILL_1__10685_ vdd gnd FILL
XFILL_0__7721_ vdd gnd FILL
X_13329_ _13329_/A _13329_/B _13329_/Y vdd gnd NAND2X1
XFILL_2__14763_ vdd gnd FILL
XFILL_1__12424_ vdd gnd FILL
XFILL_0__11065_ vdd gnd FILL
XFILL_0__7652_ vdd gnd FILL
XFILL_0__10016_ vdd gnd FILL
XFILL_1__12355_ vdd gnd FILL
XFILL256950x216150 vdd gnd FILL
XFILL_0__7583_ vdd gnd FILL
XFILL_1__11306_ vdd gnd FILL
XFILL_0__14824_ vdd gnd FILL
XFILL_1__12286_ vdd gnd FILL
XFILL_0__9322_ vdd gnd FILL
X_9950_ _9950_/A _9950_/B _9950_/S _9950_/Y vdd gnd MUX2X1
XFILL_1__11237_ vdd gnd FILL
XFILL_1__14025_ vdd gnd FILL
XFILL_0__14755_ vdd gnd FILL
XFILL_0__11967_ vdd gnd FILL
XFILL_2__10788_ vdd gnd FILL
XFILL_0__9253_ vdd gnd FILL
X_8901_ _8901_/D _8901_/CLK _8901_/Q vdd gnd DFFPOSX1
X_9881_ _9881_/A _9881_/B _9881_/Y vdd gnd NAND2X1
XFILL_2__12527_ vdd gnd FILL
XFILL_1__11168_ vdd gnd FILL
XFILL_0__10918_ vdd gnd FILL
XFILL_0__13706_ vdd gnd FILL
XFILL_0__8204_ vdd gnd FILL
XFILL_0__14686_ vdd gnd FILL
XFILL_0__11898_ vdd gnd FILL
XFILL_0__9184_ vdd gnd FILL
X_8832_ _8832_/A _8832_/B _8832_/C _8832_/Y vdd gnd OAI21X1
XBUFX2_insert0 BUFX2_insert0/A BUFX2_insert0/Y vdd gnd BUFX2
XFILL_1__10119_ vdd gnd FILL
XFILL_2__12458_ vdd gnd FILL
XFILL_0__13637_ vdd gnd FILL
XFILL257550x244950 vdd gnd FILL
XFILL_0__10849_ vdd gnd FILL
XFILL_1__11099_ vdd gnd FILL
XFILL_0__8135_ vdd gnd FILL
X_8763_ _8763_/A _8763_/Y vdd gnd INVX1
XFILL_2__12389_ vdd gnd FILL
XFILL_0__13568_ vdd gnd FILL
X_7714_ _7714_/A _7714_/B _7714_/Y vdd gnd OR2X2
XFILL_0__8066_ vdd gnd FILL
XFILL_2__14128_ vdd gnd FILL
XFILL_0__12519_ vdd gnd FILL
X_8694_ _8694_/A _8694_/B _8694_/Y vdd gnd NAND2X1
XFILL_1__14858_ vdd gnd FILL
X_7645_ _7645_/A _7645_/B _7645_/Y vdd gnd NAND2X1
XFILL_2__14059_ vdd gnd FILL
XFILL_1__13809_ vdd gnd FILL
XFILL_1__14789_ vdd gnd FILL
XFILL257550x7350 vdd gnd FILL
XFILL_1__7830_ vdd gnd FILL
X_7576_ _7576_/A _7576_/B _7576_/C _7576_/Y vdd gnd OAI21X1
X_9315_ _9315_/A _9315_/Y vdd gnd INVX1
XFILL_0__8968_ vdd gnd FILL
XFILL_1__7761_ vdd gnd FILL
XFILL_1__9500_ vdd gnd FILL
X_9246_ _9246_/A _9246_/B _9246_/C _9246_/Y vdd gnd NAND3X1
XFILL_1__7692_ vdd gnd FILL
XFILL_1__9431_ vdd gnd FILL
X_9177_ _9177_/A _9177_/B _9177_/C _9177_/Y vdd gnd NAND3X1
XFILL256950x126150 vdd gnd FILL
X_8128_ _8128_/A _8128_/Y vdd gnd INVX1
XFILL_1__9362_ vdd gnd FILL
XFILL_1__8313_ vdd gnd FILL
X_8059_ _8059_/A _8059_/B _8059_/Y vdd gnd NAND2X1
XFILL_1__9293_ vdd gnd FILL
XFILL_1__8244_ vdd gnd FILL
X_10961_ _10961_/A _10961_/B _10961_/C _10961_/Y vdd gnd OAI21X1
XFILL_1__8175_ vdd gnd FILL
XFILL257550x154950 vdd gnd FILL
X_12700_ _12700_/A _12700_/Y vdd gnd INVX2
XFILL_1__7126_ vdd gnd FILL
X_13680_ _13680_/A _13680_/Y vdd gnd INVX2
X_10892_ _10892_/A _10892_/B _10892_/C _10892_/Y vdd gnd AOI21X1
X_12631_ _12631_/A _12631_/B _12631_/C _12631_/D _12631_/Y vdd gnd AOI22X1
XFILL257250x25350 vdd gnd FILL
XFILL_1_CLKBUF1_insert60 vdd gnd FILL
X_12562_ _12562_/D _12562_/CLK _12562_/Q vdd gnd DFFPOSX1
XFILL_1_CLKBUF1_insert71 vdd gnd FILL
XFILL_1_CLKBUF1_insert82 vdd gnd FILL
XFILL_2__7870_ vdd gnd FILL
XFILL_1_CLKBUF1_insert93 vdd gnd FILL
X_14301_ _14301_/A _14301_/Y vdd gnd INVX1
X_11513_ _11513_/A _11513_/B _11513_/Y vdd gnd NAND2X1
X_12493_ _12493_/A _12493_/B _12493_/C _12493_/Y vdd gnd OAI21X1
X_14232_ _14232_/A _14232_/B _14232_/Y vdd gnd NAND2X1
X_11444_ _11444_/A _11444_/B _11444_/C _11444_/Y vdd gnd OAI21X1
X_14163_ _14163_/D _14163_/CLK _14163_/Q vdd gnd DFFPOSX1
X_11375_ _11375_/A _11375_/B _11375_/Y vdd gnd NOR2X1
XFILL_1__10470_ vdd gnd FILL
X_13114_ _13114_/A _13114_/B _13114_/C _13114_/Y vdd gnd NAND3X1
X_10326_ _10326_/A _10326_/B _10326_/Y vdd gnd NOR2X1
XFILL_1__9629_ vdd gnd FILL
XFILL_2__8422_ vdd gnd FILL
X_14094_ _14094_/A _14094_/B _14094_/C _14094_/Y vdd gnd AOI21X1
XFILL_2__11760_ vdd gnd FILL
X_13045_ _13045_/A _13045_/B _13045_/C _13045_/Y vdd gnd OAI21X1
X_10257_ _10257_/A _10257_/B _10257_/Y vdd gnd NAND2X1
XFILL_2__8353_ vdd gnd FILL
XFILL_1__12140_ vdd gnd FILL
XFILL_0__12870_ vdd gnd FILL
X_10188_ _10188_/A _10188_/B _10188_/Y vdd gnd OR2X2
XFILL_2__10642_ vdd gnd FILL
XFILL_0__11821_ vdd gnd FILL
XFILL_2__8284_ vdd gnd FILL
XFILL_1__12071_ vdd gnd FILL
XFILL_1__11022_ vdd gnd FILL
XFILL_2__10573_ vdd gnd FILL
XFILL_0__11752_ vdd gnd FILL
X_13947_ _13947_/A _13947_/B _13947_/C _13947_/Y vdd gnd OAI21X1
XFILL_0__14471_ vdd gnd FILL
X_13878_ _13878_/A _13878_/B _13878_/Y vdd gnd NAND2X1
XFILL_0__13422_ vdd gnd FILL
XFILL_0__10634_ vdd gnd FILL
XFILL_1__12973_ vdd gnd FILL
X_12829_ _12829_/A _12829_/B _12829_/C _12829_/Y vdd gnd AOI21X1
XFILL_1__14712_ vdd gnd FILL
XFILL_1__11924_ vdd gnd FILL
XFILL_2__12174_ vdd gnd FILL
XFILL_0__13353_ vdd gnd FILL
XFILL_0__10565_ vdd gnd FILL
XFILL_0__9940_ vdd gnd FILL
XFILL_0__12304_ vdd gnd FILL
XFILL_2__11125_ vdd gnd FILL
XFILL_1__14643_ vdd gnd FILL
XFILL_1__11855_ vdd gnd FILL
XFILL_0__13284_ vdd gnd FILL
X_7430_ _7430_/A _7430_/B _7430_/C _7430_/Y vdd gnd AOI21X1
XFILL_0__10496_ vdd gnd FILL
XFILL_0__9871_ vdd gnd FILL
XFILL_0__12235_ vdd gnd FILL
XFILL_1__10806_ vdd gnd FILL
XFILL_1__14574_ vdd gnd FILL
XFILL_0__8822_ vdd gnd FILL
XFILL_1__11786_ vdd gnd FILL
X_7361_ _7361_/A _7361_/B _7361_/C _7361_/Y vdd gnd OAI21X1
XFILL_1__13525_ vdd gnd FILL
XFILL_0__12166_ vdd gnd FILL
X_9100_ _9100_/A _9100_/Y vdd gnd INVX1
XFILL_0__8753_ vdd gnd FILL
X_7292_ _7292_/A _7292_/B _7292_/C _7292_/Y vdd gnd AOI21X1
XFILL_2__14815_ vdd gnd FILL
XFILL_0__11117_ vdd gnd FILL
XFILL_1__10668_ vdd gnd FILL
X_9031_ _9031_/A _9031_/B _9031_/Y vdd gnd NAND2X1
XFILL_0__7704_ vdd gnd FILL
XFILL_0__12097_ vdd gnd FILL
XFILL_0__8684_ vdd gnd FILL
XFILL_2__14746_ vdd gnd FILL
XFILL_1__12407_ vdd gnd FILL
XFILL_0__11048_ vdd gnd FILL
XFILL_2__11958_ vdd gnd FILL
XFILL_1__10599_ vdd gnd FILL
XFILL_1__13387_ vdd gnd FILL
XFILL_0__7635_ vdd gnd FILL
XFILL_2__14677_ vdd gnd FILL
XFILL_1__12338_ vdd gnd FILL
XFILL_0__7566_ vdd gnd FILL
XFILL_0__14807_ vdd gnd FILL
XFILL_1__12269_ vdd gnd FILL
XFILL_0__9305_ vdd gnd FILL
X_9933_ _9933_/A _9933_/B _9933_/S _9933_/Y vdd gnd MUX2X1
XFILL_0__12999_ vdd gnd FILL
XFILL_1__14008_ vdd gnd FILL
XFILL_0__7497_ vdd gnd FILL
XFILL_0__14738_ vdd gnd FILL
XFILL_0__9236_ vdd gnd FILL
X_9864_ _9864_/A _9864_/B _9864_/C _9864_/Y vdd gnd OAI21X1
XFILL_0__14669_ vdd gnd FILL
XFILL_0__9167_ vdd gnd FILL
X_8815_ _8815_/A _8815_/B _8815_/C _8815_/Y vdd gnd OAI21X1
X_9795_ _9795_/D _9795_/CLK _9795_/Q vdd gnd DFFPOSX1
XFILL_0__8118_ vdd gnd FILL
XFILL_0__9098_ vdd gnd FILL
XFILL_1__9980_ vdd gnd FILL
X_8746_ _8746_/A _8746_/Y vdd gnd INVX1
XFILL_1__8931_ vdd gnd FILL
XFILL_0__8049_ vdd gnd FILL
X_8677_ _8677_/A _8677_/B _8677_/Y vdd gnd NAND2X1
X_7628_ _7628_/A _7628_/B _7628_/C _7628_/Y vdd gnd OAI21X1
XFILL_1_CLKBUF1_insert104 vdd gnd FILL
XFILL_1__7813_ vdd gnd FILL
X_7559_ _7559_/A _7559_/B _7559_/C _7559_/Y vdd gnd NAND3X1
XFILL_1__8793_ vdd gnd FILL
XFILL_1__7744_ vdd gnd FILL
X_11160_ _11160_/A _11160_/B _11160_/Y vdd gnd NAND2X1
X_9229_ _9229_/A _9229_/B _9229_/C _9229_/Y vdd gnd OAI21X1
XFILL_1__7675_ vdd gnd FILL
X_10111_ _10111_/A _10111_/B _10111_/C _10111_/Y vdd gnd NAND3X1
X_11091_ _11091_/A _11091_/B _11091_/C _11091_/Y vdd gnd OAI21X1
XFILL_1__9414_ vdd gnd FILL
X_10042_ _10042_/A _10042_/B _10042_/C _10042_/Y vdd gnd OAI21X1
XFILL_1__9345_ vdd gnd FILL
X_14850_ _14850_/A _14850_/B _14850_/C _14850_/Y vdd gnd OAI21X1
XFILL_1__9276_ vdd gnd FILL
X_13801_ _13801_/A _13801_/B _13801_/C _13801_/Y vdd gnd OAI21X1
X_14781_ _14781_/A _14781_/B _14781_/C _14781_/Y vdd gnd AOI21X1
XFILL_1__8227_ vdd gnd FILL
X_11993_ _11993_/A _11993_/B _11993_/Y vdd gnd AND2X2
X_13732_ _13732_/A _13732_/B _13732_/C _13732_/Y vdd gnd AOI21X1
X_10944_ _10944_/A _10944_/Y vdd gnd INVX1
XFILL_1__8158_ vdd gnd FILL
X_13663_ _13663_/A _13663_/B _13663_/C _13663_/Y vdd gnd OAI21X1
XFILL_1__7109_ vdd gnd FILL
X_10875_ _10875_/A _10875_/Y vdd gnd INVX1
XFILL_2__8971_ vdd gnd FILL
XFILL_1__8089_ vdd gnd FILL
X_12614_ _12614_/D _12614_/CLK _12614_/Q vdd gnd DFFPOSX1
X_13594_ _13594_/A _13594_/B _13594_/Y vdd gnd NAND2X1
XFILL_0__10350_ vdd gnd FILL
X_12545_ _12545_/D _12545_/CLK _12545_/Q vdd gnd DFFPOSX1
XFILL_2__7853_ vdd gnd FILL
XFILL_0__10281_ vdd gnd FILL
X_12476_ _12476_/A _12476_/B _12476_/C _12476_/Y vdd gnd OAI21X1
XFILL_0__12020_ vdd gnd FILL
XFILL_2__7784_ vdd gnd FILL
XFILL_1__11571_ vdd gnd FILL
X_14215_ _14215_/D _14215_/CLK _14215_/Q vdd gnd DFFPOSX1
X_11427_ _11427_/A _11427_/Y vdd gnd INVX1
XFILL_1__10522_ vdd gnd FILL
XFILL_1__13310_ vdd gnd FILL
XFILL_1__14290_ vdd gnd FILL
X_14146_ _14146_/A _14146_/B _14146_/C _14146_/Y vdd gnd OAI21X1
X_11358_ _11358_/A _11358_/B _11358_/Y vdd gnd OR2X2
XFILL_2__11812_ vdd gnd FILL
XFILL_1__10453_ vdd gnd FILL
XCLKBUF1_insert103 CLKBUF1_insert103/A CLKBUF1_insert103/Y vdd gnd CLKBUF1
XFILL_1__13241_ vdd gnd FILL
XFILL_0__13971_ vdd gnd FILL
X_10309_ _10309_/A _10309_/B _10309_/C _10309_/Y vdd gnd NAND3X1
XFILL_2__8405_ vdd gnd FILL
X_14077_ _14077_/A _14077_/B _14077_/C _14077_/Y vdd gnd OAI21X1
X_11289_ _11289_/A _11289_/B _11289_/C _11289_/Y vdd gnd AOI21X1
XFILL_1__13172_ vdd gnd FILL
XFILL_2__11743_ vdd gnd FILL
XFILL_0__12922_ vdd gnd FILL
XFILL_1__10384_ vdd gnd FILL
XFILL_0__7420_ vdd gnd FILL
X_13028_ _13028_/A _13028_/B _13028_/C _13028_/Y vdd gnd OAI21X1
XFILL_2__8336_ vdd gnd FILL
XFILL_1__12123_ vdd gnd FILL
XFILL_0__12853_ vdd gnd FILL
XFILL_0__7351_ vdd gnd FILL
XFILL_2__13413_ vdd gnd FILL
XFILL_2__10625_ vdd gnd FILL
XFILL_2__8267_ vdd gnd FILL
XFILL_1__12054_ vdd gnd FILL
XFILL_0__11804_ vdd gnd FILL
XFILL_0__12784_ vdd gnd FILL
XFILL_1__11005_ vdd gnd FILL
XFILL_0__7282_ vdd gnd FILL
XFILL_2__10556_ vdd gnd FILL
XFILL_0__11735_ vdd gnd FILL
XFILL_2__8198_ vdd gnd FILL
XFILL_0__9021_ vdd gnd FILL
XFILL_2__10487_ vdd gnd FILL
XFILL_0__14454_ vdd gnd FILL
X_8600_ _8600_/A _8600_/Y vdd gnd INVX1
X_9580_ _9580_/A _9580_/B _9580_/Y vdd gnd NOR2X1
XFILL_0__10617_ vdd gnd FILL
XFILL_0__13405_ vdd gnd FILL
XFILL_1__12956_ vdd gnd FILL
XFILL_0__14385_ vdd gnd FILL
XFILL_0__11597_ vdd gnd FILL
XFILL_1_BUFX2_insert280 vdd gnd FILL
XCLKBUF1_insert40 CLKBUF1_insert40/A CLKBUF1_insert40/Y vdd gnd CLKBUF1
X_8531_ _8531_/A _8531_/B _8531_/C _8531_/Y vdd gnd OAI21X1
XFILL_1_BUFX2_insert291 vdd gnd FILL
XCLKBUF1_insert51 CLKBUF1_insert51/A CLKBUF1_insert51/Y vdd gnd CLKBUF1
XFILL_1__11907_ vdd gnd FILL
XFILL_0__10548_ vdd gnd FILL
XCLKBUF1_insert62 CLKBUF1_insert62/A CLKBUF1_insert62/Y vdd gnd CLKBUF1
XFILL_0__13336_ vdd gnd FILL
XCLKBUF1_insert73 CLKBUF1_insert73/A CLKBUF1_insert73/Y vdd gnd CLKBUF1
XFILL_0__9923_ vdd gnd FILL
XFILL_1__12887_ vdd gnd FILL
XCLKBUF1_insert84 CLKBUF1_insert84/A CLKBUF1_insert84/Y vdd gnd CLKBUF1
X_8462_ _8462_/A _8462_/B _8462_/C _8462_/Y vdd gnd OAI21X1
XCLKBUF1_insert95 CLKBUF1_insert95/A CLKBUF1_insert95/Y vdd gnd CLKBUF1
XFILL_2__11108_ vdd gnd FILL
XFILL_1__14626_ vdd gnd FILL
XFILL_1__11838_ vdd gnd FILL
XFILL_0__13267_ vdd gnd FILL
XFILL_0__10479_ vdd gnd FILL
X_7413_ _7413_/A _7413_/B _7413_/C _7413_/Y vdd gnd NAND3X1
XFILL_0__9854_ vdd gnd FILL
X_8393_ _8393_/A _8393_/B _8393_/C _8393_/Y vdd gnd OAI21X1
XFILL_2__11039_ vdd gnd FILL
XFILL_0__12218_ vdd gnd FILL
XFILL_1__14557_ vdd gnd FILL
XFILL_0__13198_ vdd gnd FILL
XFILL_1__11769_ vdd gnd FILL
XFILL_0__8805_ vdd gnd FILL
X_7344_ _7344_/A _7344_/B _7344_/Y vdd gnd NOR2X1
XFILL_1__13508_ vdd gnd FILL
XFILL_0__12149_ vdd gnd FILL
XFILL_1__14488_ vdd gnd FILL
XFILL_0__8736_ vdd gnd FILL
X_7275_ _7275_/A _7275_/B _7275_/Y vdd gnd NAND2X1
X_9014_ _9014_/A _9014_/B _9014_/C _9014_/Y vdd gnd NAND3X1
XFILL_1__7460_ vdd gnd FILL
XFILL_0__8667_ vdd gnd FILL
XFILL_2__14729_ vdd gnd FILL
XFILL_0__7618_ vdd gnd FILL
XFILL_1__7391_ vdd gnd FILL
XFILL_0__8598_ vdd gnd FILL
XFILL_1__9130_ vdd gnd FILL
XFILL_0__7549_ vdd gnd FILL
XFILL_1__9061_ vdd gnd FILL
X_9916_ _9916_/A _9916_/Y vdd gnd INVX1
XFILL_0__9219_ vdd gnd FILL
XFILL_1__8012_ vdd gnd FILL
X_9847_ _9847_/A _9847_/Y vdd gnd INVX2
X_9778_ _9778_/D _9778_/CLK _9778_/Q vdd gnd DFFPOSX1
X_10660_ _10660_/A _10660_/B _10660_/Y vdd gnd NAND2X1
XFILL_1__9963_ vdd gnd FILL
X_8729_ _8729_/A _8729_/B _8729_/C _8729_/Y vdd gnd OAI21X1
X_10591_ _10591_/A _10591_/B _10591_/C _10591_/Y vdd gnd NAND3X1
XFILL_1__9894_ vdd gnd FILL
X_12330_ _12330_/A _12330_/B _12330_/C _12330_/Y vdd gnd OAI21X1
X_12261_ _12261_/A _12261_/B _12261_/Y vdd gnd NOR2X1
XFILL_1__8776_ vdd gnd FILL
X_14000_ _14000_/A _14000_/B _14000_/Y vdd gnd NOR2X1
X_11212_ _11212_/A _11212_/B _11212_/Y vdd gnd NAND2X1
XFILL_1__7727_ vdd gnd FILL
X_12192_ _12192_/A _12192_/Y vdd gnd INVX1
X_11143_ _11143_/A _11143_/B _11143_/S _11143_/Y vdd gnd MUX2X1
XFILL_1__7658_ vdd gnd FILL
X_11074_ _11074_/A _11074_/Y vdd gnd INVX1
XFILL_1__7589_ vdd gnd FILL
X_14902_ _14902_/D _14902_/CLK _14902_/Q vdd gnd DFFPOSX1
X_10025_ _10025_/A _10025_/B _10025_/Y vdd gnd NAND2X1
XFILL_1__9328_ vdd gnd FILL
X_14833_ _14833_/A _14833_/B _14833_/Y vdd gnd NAND2X1
XFILL_1__9259_ vdd gnd FILL
X_14764_ _14764_/A _14764_/B _14764_/Y vdd gnd OR2X2
X_11976_ _11976_/A _11976_/B _11976_/Y vdd gnd OR2X2
XFILL_2__10341_ vdd gnd FILL
XFILL_0__11520_ vdd gnd FILL
X_13715_ _13715_/A _13715_/B _13715_/C _13715_/Y vdd gnd NAND3X1
X_10927_ _10927_/A _10927_/Y vdd gnd INVX1
X_14695_ _14695_/A _14695_/B _14695_/Y vdd gnd OR2X2
XFILL_2__10272_ vdd gnd FILL
XFILL_1__12810_ vdd gnd FILL
XFILL_2__13060_ vdd gnd FILL
XFILL_0__11451_ vdd gnd FILL
XFILL_1__13790_ vdd gnd FILL
X_13646_ _13646_/A _13646_/Y vdd gnd INVX2
X_10858_ _10858_/A _10858_/B _10858_/S _10858_/Y vdd gnd MUX2X1
XFILL_0__10402_ vdd gnd FILL
XFILL_0_BUFX2_insert210 vdd gnd FILL
XFILL_1__12741_ vdd gnd FILL
XFILL_0_BUFX2_insert221 vdd gnd FILL
XFILL_0__11382_ vdd gnd FILL
XFILL_0_BUFX2_insert232 vdd gnd FILL
X_13577_ _13577_/A _13577_/Y vdd gnd INVX1
XFILL_0__13121_ vdd gnd FILL
XFILL_0_BUFX2_insert243 vdd gnd FILL
X_10789_ _10789_/A _10789_/B _10789_/C _10789_/Y vdd gnd OAI21X1
XFILL_0__10333_ vdd gnd FILL
XFILL_0_BUFX2_insert254 vdd gnd FILL
XFILL_0_BUFX2_insert265 vdd gnd FILL
XFILL_1__12672_ vdd gnd FILL
XFILL_0_BUFX2_insert276 vdd gnd FILL
X_12528_ _12528_/A _12528_/B _12528_/C _12528_/Y vdd gnd OAI21X1
XFILL_0_BUFX2_insert287 vdd gnd FILL
XFILL_1__14411_ vdd gnd FILL
XFILL_0_BUFX2_insert298 vdd gnd FILL
XFILL_0__13052_ vdd gnd FILL
XFILL_0__10264_ vdd gnd FILL
X_12459_ _12459_/A _12459_/Y vdd gnd INVX1
XFILL_0__12003_ vdd gnd FILL
XFILL_1__14342_ vdd gnd FILL
XFILL_1__11554_ vdd gnd FILL
XFILL_0__10195_ vdd gnd FILL
XFILL_0__9570_ vdd gnd FILL
XFILL_1__10505_ vdd gnd FILL
XFILL_2_BUFX2_insert25 vdd gnd FILL
XFILL_2__7698_ vdd gnd FILL
XFILL_1__14273_ vdd gnd FILL
XFILL_0__8521_ vdd gnd FILL