*SPEF "IEEE 1481.1999"
*DESIGN "output_terminal"
*DATE "19:55:02 Thursday February 27, 2025"
*VENDOR "unknown"
*PROGRAM "qrouter"
*VERSION "unknown"
*DESIGN_FLOW "qflow"
*DIVIDER /
*DELIMITER :
*BUS_DELIMITER <>
*T_UNIT 1 PS
*C_UNIT 1 FF
*R_UNIT 1 OHM
*L_UNIT 1 HENRY

*NAME_MAP
*1 LoadCtl[0]
*2 _576_
*3 _518_
*4 _517_
*5 _516_
*6 _515_
*7 _318_
*8 _319_
*9 _322_
*10 _313_
*11 _315_
*12 _296_
*13 _577_
*14 _513_
*15 _511_
*16 _312_
*17 _321_
*18 _94_
*19 _323_
*20 _429_
*21 _426_
*22 _439_
*23 _442_
*24 _419_
*25 _476_
*26 _344_
*27 _340_
*28 _355_
*29 _409_
*30 _394_
*31 _410_
*32 _332_
*33 _325_
*34 _471_
*35 clk_bF_buf0
*36 CLKBUF1_insert6
*37 _529_
*38 _532_
*39 _539_
*40 _536_
*41 _535_
*42 _538_
*43 _537_
*44 _528_
*45 clk_bF_buf1
*46 CLKBUF1_insert5
*47 _527_
*48 _534_
*49 _552_
*50 _562_
*51 _551_
*52 _553_
*53 _563_
*54 _576_
*55 clk_bF_buf2
*56 CLKBUF1_insert4
*57 _581_
*58 _577_
*59 _582_
*60 _565_
*61 _567_
*62 _564_
*63 _566_
*64 _573_
*65 clk_bF_buf3
*66 CLKBUF1_insert3
*67 _550_
*68 _549_
*69 _531_
*70 _548_
*71 _543_
*72 _542_
*73 _540_
*74 _541_
*75 clk_bF_buf4
*76 CLKBUF1_insert2
*77 _547_
*78 _544_
*79 _546_
*80 _545_
*81 _533_
*82 _530_
*83 _574_
*84 _575_
*85 clk_bF_buf5
*86 CLKBUF1_insert1
*87 _556_
*88 _557_
*89 _555_
*90 _554_
*91 _558_
*92 _559_
*93 _561_
*94 _560_
*95 clk_bF_buf6
*96 CLKBUF1_insert0
*97 _578_
*98 _580_
*99 _568_
*100 _579_
*101 _572_
*102 _570_
*103 _571_
*104 _569_
*105 _76_
*106 _297_
*107 _298_
*108 _299_
*109 _506_
*110 _505_
*111 _504_
*112 _503_
*113 _301_
*114 _302_
*115 _82_
*116 _305_
*117 _310_
*118 _309_
*119 _510_
*120 _509_
*121 _507_
*122 _508_
*123 _306_
*124 _307_
*125 _237_
*126 _491_
*127 _522_
*128 _521_
*129 _492_
*130 _493_
*131 _494_
*132 _495_
*133 _519_
*134 _520_
*135 _241_
*136 _497_
*137 _524_
*138 _526_
*139 _523_
*140 _525_
*141 _501_
*142 _498_
*143 _499_
*144 _502_
*145 clk
*146 CLKBUF1_insert5
*147 CLKBUF1_insert3
*148 CLKBUF1_insert2
*149 CLKBUF1_insert6
*150 CLKBUF1_insert1
*151 CLKBUF1_insert4
*152 CLKBUF1_insert0
*153 LoadCtl_6_bF_buf4
*154 BUFX2_insert20
*155 _482_
*156 _432_
*157 _433_
*158 _428_
*159 _441_
*160 _417_
*161 ISreg_bF_buf1
*162 BUFX2_insert18
*163 _413_
*164 _330_
*165 _405_
*166 _399_
*167 _352_
*168 _360_
*169 ISreg_bF_buf2
*170 BUFX2_insert17
*171 _464_
*172 _457_
*173 _450_
*174 _448_
*175 _455_
*176 _436_
*177 ISreg_bF_buf3
*178 BUFX2_insert16
*179 _337_
*180 _479_
*181 _483_
*182 _323_
*183 _418_
*184 _423_
*185 _97__bF_buf4
*186 BUFX2_insert11
*187 _343_
*188 _365_
*189 _364_
*190 _445_
*191 _444_
*192 _342_
*193 selXY_bF_buf0
*194 BUFX2_insert10
*195 _281_
*196 _262_
*197 _263_
*198 _260_
*199 _265_
*200 _266_
*201 selXY_bF_buf1
*202 BUFX2_insert9
*203 _271_
*204 _275_
*205 _272_
*206 _274_
*207 _278_
*208 _277_
*209 selXY_bF_buf2
*210 BUFX2_insert8
*211 _283_
*212 _290_
*213 _289_
*214 _292_
*215 _293_
*216 _286_
*217 selXY_bF_buf3
*218 BUFX2_insert7
*219 _269_
*220 _280_
*221 _268_
*222 _284_
*223 _287_
*224 _259_
*225 _214_
*226 _464_
*227 _480_
*228 _465_
*229 _471_
*230 _466_
*231 _484_
*232 _476_
*233 LoadCtl[6]
*234 _582_
*235 BUFX2_insert23
*236 BUFX2_insert24
*237 BUFX2_insert20
*238 BUFX2_insert21
*239 BUFX2_insert22
*240 LoadCtl_6_bF_buf0
*241 BUFX2_insert24
*242 _460_
*243 _421_
*244 _416_
*245 _427_
*246 _453_
*247 LoadCtl_6_bF_buf1
*248 BUFX2_insert23
*249 _420_
*250 _481_
*251 _459_
*252 _440_
*253 _452_
*254 LoadCtl_6_bF_buf2
*255 BUFX2_insert22
*256 _324_
*257 _374_
*258 _325_
*259 _373_
*260 _381_
*261 LoadCtl_6_bF_buf3
*262 BUFX2_insert21
*263 _406_
*264 _407_
*265 _595_
*266 _382_
*267 _327_
*268 ISreg_bF_buf0
*269 BUFX2_insert19
*270 _386_
*271 _377_
*272 _379_
*273 _369_
*274 _371_
*275 _97_
*276 _327_
*277 BUFX2_insert14
*278 BUFX2_insert13
*279 BUFX2_insert11
*280 BUFX2_insert12
*281 BUFX2_insert15
*282 _97__bF_buf0
*283 BUFX2_insert15
*284 _334_
*285 _486_
*286 _473_
*287 _487_
*288 _474_
*289 _97__bF_buf1
*290 BUFX2_insert14
*291 _415_
*292 _390_
*293 _396_
*294 _391_
*295 _397_
*296 _97__bF_buf2
*297 BUFX2_insert13
*298 _349_
*299 _328_
*300 _348_
*301 _468_
*302 _469_
*303 _97__bF_buf3
*304 BUFX2_insert12
*305 _357_
*306 _335_
*307 _358_
*308 _414_
*309 _329_
*310 Yin12b[6]
*311 _568_
*312 _298_
*313 _462_
*314 _449_
*315 _448_
*316 _457_
*317 _86_
*318 _311_
*319 _513_
*320 _312_
*321 _511_
*322 _315_
*323 _313_
*324 Yin0[0]
*325 _574_
*326 _425_
*327 _317_
*328 _418_
*329 _423_
*330 _416_
*331 Xin12b[6]
*332 _556_
*333 _370_
*334 _369_
*335 _379_
*336 _384_
*337 _503_
*338 _148_
*339 _386_
*340 _409_
*341 _394_
*342 _387_
*343 _388_
*344 _400_
*345 ISreg
*346 _527_
*347 BUFX2_insert19
*348 BUFX2_insert18
*349 BUFX2_insert16
*350 BUFX2_insert17
*351 selXY
*352 BUFX2_insert9
*353 BUFX2_insert7
*354 BUFX2_insert8
*355 BUFX2_insert10
*356 Yin[0]
*357 _306_
*358 _519_
*359 _318_
*360 _294_
*361 _78_
*362 _300_
*363 _302_
*364 _316_
*365 _526_
*366 _522_
*367 Yin12b[7]
*368 _569_
*369 _301_
*370 _456_
*371 _462_
*372 _455_
*373 _80_
*374 _303_
*375 _307_
*376 _439_
*377 _437_
*378 _442_
*379 _87_
*380 _312_
*381 _514_
*382 _512_
*383 _314_
*384 _316_
*385 Yin1[1]
*386 _573_
*387 _434_
*388 _430_
*389 _431_
*390 _315_
*391 Yin0[1]
*392 _575_
*393 _320_
*394 _425_
*395 _423_
*396 _418_
*397 Xin0[0]
*398 _562_
*399 _339_
*400 _337_
*401 _330_
*402 _326_
*403 Xin0[1]
*404 _563_
*405 _339_
*406 _337_
*407 _331_
*408 _330_
*409 Xin1[1]
*410 _561_
*411 _350_
*412 _346_
*413 _345_
*414 _513_
*415 Xin12b[4]
*416 _558_
*417 _353_
*418 _367_
*419 _360_
*420 _352_
*421 _120_
*422 _354_
*423 _404_
*424 _368_
*425 _376_
*426 _355_
*427 _131_
*428 _367_
*429 _402_
*430 _385_
*431 _376_
*432 _368_
*433 Xin12b[7]
*434 _557_
*435 _378_
*436 _384_
*437 _377_
*438 _505_
*439 Xin12b[8]
*440 _554_
*441 _498_
*442 _403_
*443 _399_
*444 _383_
*445 Xin12b[9]
*446 _555_
*447 _501_
*448 _403_
*449 _399_
*450 _393_
*451 Yin12b[8]
*452 _566_
*453 _523_
*454 _475_
*455 _479_
*456 _461_
*457 Yin12b[9]
*458 _567_
*459 _475_
*460 _479_
*461 _470_
*462 _525_
*463 Xin[0]
*464 _496_
*465 _507_
*466 _515_
*467 _492_
*468 Xin[1]
*469 _500_
*470 _509_
*471 _517_
*472 _494_
*473 _73_
*474 _294_
*475 _524_
*476 _314_
*477 _299_
*478 LoadCtl[2]
*479 _578_
*480 _488_
*481 _579_
*482 _295_
*483 LoadCtl[1]
*484 _577_
*485 _578_
*486 _311_
*487 _296_
*488 _75_
*489 _296_
*490 _489_
*491 _297_
*492 _304_
*493 LoadCtl[3]
*494 _579_
*495 _297_
*496 _488_
*497 _580_
*498 Yin[1]
*499 _309_
*500 _300_
*501 _321_
*502 _84_
*503 _308_
*504 _310_
*505 _443_
*506 _444_
*507 Yin1[0]
*508 _572_
*509 _313_
*510 _434_
*511 _422_
*512 _96_
*513 _326_
*514 _516_
*515 _332_
*516 _329_
*517 Xin1[0]
*518 _560_
*519 _511_
*520 _350_
*521 _336_
*522 _104_
*523 _336_
*524 _338_
*525 _340_
*526 _344_
*527 _107_
*528 _339_
*529 _340_
*530 _354_
*531 _351_
*532 _117_
*533 _351_
*534 _352_
*535 _360_
*536 _386_
*537 _124_
*538 _359_
*539 _510_
*540 _362_
*541 _361_
*542 _145_
*543 _383_
*544 _388_
*545 _394_
*546 _387_
*547 Xin12b[10]
*548 _552_
*549 _413_
*550 _401_
*551 _400_
*552 _161_
*553 _401_
*554 _493_
*555 _405_
*556 _410_
*557 _178_
*558 _422_
*559 _426_
*560 _424_
*561 _429_
*562 _181_
*563 _425_
*564 _426_
*565 _438_
*566 _435_
*567 _192_
*568 _438_
*569 _447_
*570 _454_
*571 _439_
*572 _198_
*573 _446_
*574 _454_
*575 _447_
*576 _463_
*577 _211_
*578 _461_
*579 _466_
*580 _471_
*581 _465_
*582 Yin12b[10]
*583 _564_
*584 _478_
*585 _477_
*586 _483_
*587 Yin12b[11]
*588 _565_
*589 _521_
*590 _486_
*591 _485_
*592 LoadCtl[4]
*593 _580_
*594 _581_
*595 _491_
*596 _497_
*597 _240_
*598 _496_
*599 _512_
*600 _499_
*601 _504_
*602 _243_
*603 _500_
*604 _514_
*605 _506_
*606 _502_
*607 _49_
*608 _258_
*609 _417_
*610 _260_
*611 Xcalc[0]
*612 _528_
*613 _328_
*614 _259_
*615 _51_
*616 _261_
*617 _421_
*618 _263_
*619 Xcalc[1]
*620 _529_
*621 _262_
*622 _334_
*623 _53_
*624 _264_
*625 _428_
*626 _266_
*627 Xcalc[2]
*628 _530_
*629 _342_
*630 _265_
*631 _55_
*632 _267_
*633 _433_
*634 _269_
*635 Xcalc[3]
*636 _531_
*637 _348_
*638 _268_
*639 _57_
*640 _270_
*641 _441_
*642 _272_
*643 Xcalc[4]
*644 _532_
*645 _357_
*646 _271_
*647 _59_
*648 _273_
*649 _445_
*650 _275_
*651 Xcalc[5]
*652 _533_
*653 _364_
*654 _274_
*655 _61_
*656 _276_
*657 _453_
*658 _278_
*659 Xcalc[6]
*660 _534_
*661 _277_
*662 _366_
*663 _63_
*664 _279_
*665 _281_
*666 _460_
*667 Xcalc[7]
*668 _535_
*669 _280_
*670 _375_
*671 Ycalc[8]
*672 _548_
*673 _468_
*674 _282_
*675 Xcalc[8]
*676 _536_
*677 _390_
*678 _283_
*679 _67_
*680 _285_
*681 _474_
*682 _287_
*683 Xcalc[9]
*684 _537_
*685 _286_
*686 _392_
*687 _69_
*688 _288_
*689 _290_
*690 _482_
*691 Xcalc[10]
*692 _538_
*693 _289_
*694 _398_
*695 _71_
*696 _291_
*697 _487_
*698 _293_
*699 Xcalc[11]
*700 _539_
*701 _408_
*702 _292_
*703 _74_
*704 _295_
*705 _297_
*706 _305_
*707 Yin12b[4]
*708 _570_
*709 _446_
*710 _303_
*711 Yin12b[5]
*712 _571_
*713 _308_
*714 _446_
*715 _90_
*716 _317_
*717 _319_
*718 _419_
*719 _92_
*720 _320_
*721 _322_
*722 _419_
*723 _100_
*724 _331_
*725 _332_
*726 _518_
*727 _105_
*728 _337_
*729 _344_
*730 _338_
*731 _111_
*732 _344_
*733 _346_
*734 _345_
*735 _116_
*736 _350_
*737 _351_
*738 _354_
*739 _119_
*740 _353_
*741 _355_
*742 _508_
*743 Xin12b[5]
*744 _559_
*745 _367_
*746 _359_
*747 _125_
*748 _360_
*749 _362_
*750 _361_
*751 _132_
*752 _368_
*753 _369_
*754 _371_
*755 _134_
*756 _370_
*757 _372_
*758 _376_
*759 _135_
*760 _371_
*761 _380_
*762 _372_
*763 _146_
*764 _384_
*765 _385_
*766 _402_
*767 _154_
*768 _393_
*769 _396_
*770 _395_
*771 _155_
*772 _394_
*773 _396_
*774 _395_
*775 _163_
*776 _403_
*777 _404_
*778 _409_
*779 _164_
*780 _404_
*781 _405_
*782 _413_
*783 Xin12b[11]
*784 _553_
*785 _411_
*786 _412_
*787 _171_
*788 _412_
*789 _414_
*790 _495_
*791 _179_
*792 _423_
*793 _424_
*794 _429_
*795 _184_
*796 _429_
*797 _430_
*798 _431_
*799 _188_
*800 _434_
*801 _435_
*802 _438_
*803 _189_
*804 _435_
*805 _464_
*806 _436_
*807 _190_
*808 _436_
*809 _442_
*810 _437_
*811 _195_
*812 _442_
*813 _443_
*814 _444_
*815 _199_
*816 _447_
*817 _448_
*818 _450_
*819 _201_
*820 _449_
*821 _454_
*822 _451_
*823 _202_
*824 _450_
*825 _458_
*826 _451_
*827 _219_
*828 _470_
*829 _472_
*830 _473_
*831 _220_
*832 _471_
*833 _472_
*834 _473_
*835 _226_
*836 _478_
*837 _520_
*838 _480_
*839 _227_
*840 _479_
*841 _480_
*842 _484_
*843 _231_
*844 _484_
*845 _485_
*846 _486_
*847 _235_
*848 _489_
*849 _497_
*850 _490_
*851 LoadCtl[5]
*852 _581_
*853 _490_
*854 _582_
*855 Ycalc[0]
*856 _540_
*857 _258_
*858 _50_
*859 _259_
*860 _260_
*861 _257_[0]
*862 _260_
*863 _583_
*864 Ycalc[1]
*865 _541_
*866 _261_
*867 _52_
*868 _262_
*869 _263_
*870 _257_[1]
*871 _263_
*872 _584_
*873 Ycalc[2]
*874 _542_
*875 _264_
*876 _54_
*877 _265_
*878 _266_
*879 _257_[2]
*880 _266_
*881 _587_
*882 Ycalc[3]
*883 _543_
*884 _267_
*885 _56_
*886 _268_
*887 _269_
*888 _257_[3]
*889 _269_
*890 _588_
*891 Ycalc[4]
*892 _544_
*893 _270_
*894 _58_
*895 _271_
*896 _272_
*897 _257_[4]
*898 _272_
*899 _589_
*900 Ycalc[5]
*901 _545_
*902 _273_
*903 _60_
*904 _274_
*905 _275_
*906 _257_[5]
*907 _275_
*908 _590_
*909 Ycalc[6]
*910 _546_
*911 _276_
*912 _62_
*913 _277_
*914 _278_
*915 _257_[6]
*916 _278_
*917 _591_
*918 Ycalc[7]
*919 _547_
*920 _279_
*921 _64_
*922 _280_
*923 _281_
*924 _257_[7]
*925 _281_
*926 _592_
*927 _65_
*928 _282_
*929 _284_
*930 _66_
*931 _283_
*932 _284_
*933 _257_[8]
*934 _284_
*935 _593_
*936 Ycalc[9]
*937 _549_
*938 _285_
*939 _68_
*940 _286_
*941 _287_
*942 _257_[9]
*943 _287_
*944 _594_
*945 Ycalc[10]
*946 _550_
*947 _288_
*948 _70_
*949 _289_
*950 _290_
*951 _257_[10]
*952 _290_
*953 _585_
*954 Ycalc[11]
*955 _551_
*956 _291_
*957 _72_
*958 _292_
*959 _293_
*960 _257_[11]
*961 _293_
*962 _586_
*963 _77_
*964 _298_
*965 _299_
*966 _0_
*967 _299_
*968 _568_
*969 _79_
*970 _301_
*971 _302_
*972 _1_
*973 _302_
*974 _569_
*975 _81_
*976 _304_
*977 _305_
*978 _83_
*979 _306_
*980 _307_
*981 _2_
*982 _307_
*983 _570_
*984 _85_
*985 _309_
*986 _310_
*987 _3_
*988 _310_
*989 _571_
*990 _88_
*991 _313_
*992 _314_
*993 _4_
*994 _314_
*995 _572_
*996 _89_
*997 _315_
*998 _316_
*999 _5_
*1000 _316_
*1001 _573_
*1002 _91_
*1003 _318_
*1004 _319_
*1005 _6_
*1006 _319_
*1007 _574_
*1008 _93_
*1009 _321_
*1010 _322_
*1011 _7_
*1012 _322_
*1013 _575_
*1014 ISin
*1015 _324_
*1016 _95_
*1017 _324_
*1018 _325_
*1019 _8_
*1020 _325_
*1021 _527_
*1022 _98_
*1023 _328_
*1024 _329_
*1025 _9_
*1026 _329_
*1027 _528_
*1028 _99_
*1029 _330_
*1030 _333_
*1031 _101_
*1032 _332_
*1033 _333_
*1034 _102_
*1035 _333_
*1036 _335_
*1037 _103_
*1038 _334_
*1039 _335_
*1040 _10_
*1041 _335_
*1042 _529_
*1043 _106_
*1044 _338_
*1045 _341_
*1046 _108_
*1047 _340_
*1048 _341_
*1049 _109_
*1050 _341_
*1051 _343_
*1052 _110_
*1053 _342_
*1054 _343_
*1055 _11_
*1056 _343_
*1057 _530_
*1058 _112_
*1059 _345_
*1060 _347_
*1061 _113_
*1062 _346_
*1063 _347_
*1064 _114_
*1065 _347_
*1066 _349_
*1067 _115_
*1068 _348_
*1069 _349_
*1070 _12_
*1071 _349_
*1072 _531_
*1073 _118_
*1074 _352_
*1075 _356_
*1076 _121_
*1077 _355_
*1078 _356_
*1079 _122_
*1080 _356_
*1081 _358_
*1082 _123_
*1083 _357_
*1084 _358_
*1085 _13_
*1086 _358_
*1087 _532_
*1088 _126_
*1089 _361_
*1090 _363_
*1091 _127_
*1092 _362_
*1093 _363_
*1094 _128_
*1095 _363_
*1096 _365_
*1097 _129_
*1098 _364_
*1099 _365_
*1100 _14_
*1101 _365_
*1102 _533_
*1103 _130_
*1104 _366_
*1105 _374_
*1106 _133_
*1107 _369_
*1108 _373_
*1109 _136_
*1110 _372_
*1111 _373_
*1112 _137_
*1113 _373_
*1114 _374_
*1115 _15_
*1116 _374_
*1117 _534_
*1118 _138_
*1119 _375_
*1120 _382_
*1121 _139_
*1122 _376_
*1123 _377_
*1124 _140_
*1125 _377_
*1126 _381_
*1127 _141_
*1128 _378_
*1129 _380_
*1130 _142_
*1131 _379_
*1132 _380_
*1133 _143_
*1134 _380_
*1135 _381_
*1136 _144_
*1137 _381_
*1138 _382_
*1139 _16_
*1140 _382_
*1141 _535_
*1142 _147_
*1143 _385_
*1144 _386_
*1145 _149_
*1146 _387_
*1147 _389_
*1148 _150_
*1149 _388_
*1150 _389_
*1151 _151_
*1152 _389_
*1153 _391_
*1154 _152_
*1155 _390_
*1156 _391_
*1157 _17_
*1158 _391_
*1159 _536_
*1160 _153_
*1161 _392_
*1162 _397_
*1163 _156_
*1164 _395_
*1165 _397_
*1166 _157_
*1167 _396_
*1168 _397_
*1169 _18_
*1170 _397_
*1171 _537_
*1172 _158_
*1173 _398_
*1174 _407_
*1175 _159_
*1176 _399_
*1177 _400_
*1178 _160_
*1179 _400_
*1180 _406_
*1181 _162_
*1182 _402_
*1183 _404_
*1184 _165_
*1185 _405_
*1186 _406_
*1187 _166_
*1188 _406_
*1189 _407_
*1190 _19_
*1191 _407_
*1192 _538_
*1193 _167_
*1194 _408_
*1195 _415_
*1196 _168_
*1197 _409_
*1198 _411_
*1199 _169_
*1200 _410_
*1201 _411_
*1202 _170_
*1203 _411_
*1204 _415_
*1205 _172_
*1206 _413_
*1207 _414_
*1208 _173_
*1209 _414_
*1210 _415_
*1211 _20_
*1212 _415_
*1213 _539_
*1214 _174_
*1215 _416_
*1216 _417_
*1217 _21_
*1218 _417_
*1219 _540_
*1220 _175_
*1221 _418_
*1222 _420_
*1223 _176_
*1224 _419_
*1225 _420_
*1226 _177_
*1227 _420_
*1228 _421_
*1229 _22_
*1230 _421_
*1231 _541_
*1232 _180_
*1233 _424_
*1234 _427_
*1235 _182_
*1236 _426_
*1237 _427_
*1238 _183_
*1239 _427_
*1240 _428_
*1241 _23_
*1242 _428_
*1243 _542_
*1244 _185_
*1245 _430_
*1246 _432_
*1247 _186_
*1248 _431_
*1249 _432_
*1250 _187_
*1251 _432_
*1252 _433_
*1253 _24_
*1254 _433_
*1255 _543_
*1256 _191_
*1257 _437_
*1258 _440_
*1259 _193_
*1260 _439_
*1261 _440_
*1262 _194_
*1263 _440_
*1264 _441_
*1265 _25_
*1266 _441_
*1267 _544_
*1268 _196_
*1269 _443_
*1270 _445_
*1271 _197_
*1272 _444_
*1273 _445_
*1274 _26_
*1275 _445_
*1276 _545_
*1277 _200_
*1278 _448_
*1279 _452_
*1280 _203_
*1281 _451_
*1282 _452_
*1283 _204_
*1284 _452_
*1285 _453_
*1286 _27_
*1287 _453_
*1288 _546_
*1289 _205_
*1290 _454_
*1291 _455_
*1292 _206_
*1293 _455_
*1294 _459_
*1295 _207_
*1296 _456_
*1297 _458_
*1298 _208_
*1299 _457_
*1300 _458_
*1301 _209_
*1302 _458_
*1303 _459_
*1304 _210_
*1305 _459_
*1306 _460_
*1307 _28_
*1308 _460_
*1309 _547_
*1310 _212_
*1311 _462_
*1312 _463_
*1313 _213_
*1314 _463_
*1315 _464_
*1316 _215_
*1317 _465_
*1318 _467_
*1319 _216_
*1320 _466_
*1321 _467_
*1322 _217_
*1323 _467_
*1324 _469_
*1325 _218_
*1326 _468_
*1327 _469_
*1328 _29_
*1329 _469_
*1330 _548_
*1331 _221_
*1332 _472_
*1333 _474_
*1334 _222_
*1335 _473_
*1336 _474_
*1337 _30_
*1338 _474_
*1339 _549_
*1340 _223_
*1341 _475_
*1342 _476_
*1343 _224_
*1344 _476_
*1345 _477_
*1346 _225_
*1347 _477_
*1348 _481_
*1349 _228_
*1350 _480_
*1351 _481_
*1352 _229_
*1353 _481_
*1354 _482_
*1355 _31_
*1356 _482_
*1357 _550_
*1358 _230_
*1359 _483_
*1360 _484_
*1361 _232_
*1362 _485_
*1363 _487_
*1364 _233_
*1365 _486_
*1366 _487_
*1367 _32_
*1368 _487_
*1369 _551_
*1370 _234_
*1371 _488_
*1372 _489_
*1373 _236_
*1374 _490_
*1375 _491_
*1376 _238_
*1377 _492_
*1378 _493_
*1379 _33_
*1380 _493_
*1381 _552_
*1382 _239_
*1383 _494_
*1384 _495_
*1385 _34_
*1386 _495_
*1387 _553_
*1388 _242_
*1389 _498_
*1390 _499_
*1391 _35_
*1392 _499_
*1393 _554_
*1394 _244_
*1395 _501_
*1396 _502_
*1397 _36_
*1398 _502_
*1399 _555_
*1400 _245_
*1401 _503_
*1402 _504_
*1403 _37_
*1404 _504_
*1405 _556_
*1406 _246_
*1407 _505_
*1408 _506_
*1409 _38_
*1410 _506_
*1411 _557_
*1412 _247_
*1413 _507_
*1414 _508_
*1415 _39_
*1416 _508_
*1417 _558_
*1418 _248_
*1419 _509_
*1420 _510_
*1421 _40_
*1422 _510_
*1423 _559_
*1424 _249_
*1425 _511_
*1426 _512_
*1427 _41_
*1428 _512_
*1429 _560_
*1430 _250_
*1431 _513_
*1432 _514_
*1433 _42_
*1434 _514_
*1435 _561_
*1436 _251_
*1437 _515_
*1438 _516_
*1439 _43_
*1440 _516_
*1441 _562_
*1442 _252_
*1443 _517_
*1444 _518_
*1445 _44_
*1446 _518_
*1447 _563_
*1448 _253_
*1449 _519_
*1450 _520_
*1451 _45_
*1452 _520_
*1453 _564_
*1454 _254_
*1455 _521_
*1456 _522_
*1457 _46_
*1458 _522_
*1459 _565_
*1460 _255_
*1461 _523_
*1462 _524_
*1463 _47_
*1464 _524_
*1465 _566_
*1466 _256_
*1467 _525_
*1468 _526_
*1469 _48_
*1470 _526_
*1471 _567_
*1472 Rdy
*1473 _576_
*1474 Dout[0]
*1475 _583_
*1476 Dout[1]
*1477 _584_
*1478 Dout[10]
*1479 _585_
*1480 Dout[11]
*1481 _586_
*1482 Dout[2]
*1483 _587_
*1484 Dout[3]
*1485 _588_
*1486 Dout[4]
*1487 _589_
*1488 Dout[5]
*1489 _590_
*1490 Dout[6]
*1491 _591_
*1492 Dout[7]
*1493 _592_
*1494 Dout[8]
*1495 _593_
*1496 Dout[9]
*1497 _594_
*1498 Vld
*1499 _595_

*PORTS
*145 I
*351 I
*356 I
*463 I
*468 I
*498 I
*1014 I
*1472 I
*1474 O
*1476 O
*1478 O
*1480 O
*1482 O
*1484 O
*1486 O
*1488 O
*1490 O
*1492 O
*1494 O
*1496 O
*1498 O

*D_NET *1 0.0210528
*CONN
*I *2:Q O *D _576
*I *3:A I *L 0
*I *4:A I *L 0
*I *5:A I *L 0
*I *6:A I *L 0
*I *7:A I *L 0
*I *8:A I *L 0
*I *9:A I *L 0
*I *10:A I *L 0
*I *11:A I *L 0
*I *12:A I *L 0
*I *13:D I *L 0
*I *14:A I *L 0
*I *15:A I *L 0
*I *16:B I *L 0
*I *17:A I *L 0
*CAP
1 1_1 0.0010152
2 1_2 0.0006552
3 1_3 0.000288
4 1_4 0.0001008
5 1_5 0.00126
6 1_6 0.0003024
7 1_7 0.000504
8 1_8 0.0003528
9 1_9 0.0029808
10 1_10 0.00018
11 1_11 0.000144
12 1_12 0.0008064
13 1_13 0.0006048
14 1_14 0.0018864
15 1_15 0.000828
16 1_16 0.000432
17 1_17 0.0020664
18 1_18 0.0004536
19 1_19 0.002232
20 1_20 0.0001008
21 1_21 0.000648
22 1_22 0.0001008
23 1_23 0.000144
24 1_24 0.0004536
25 1_25 0.001656
26 1_26 0.0008568
*RES
1 *2:Q 1_1 4.59286
2 1_1 1_2 3.34286
3 1_2 *3:A 0
4 1_1 1_3 1
5 1_3 1_4 0.514286
6 1_4 *4:A 0
7 1_3 1_5 4.375
8 1_5 1_6 1.54286
9 1_6 *5:A 0
10 1_5 1_7 2.57143
11 1_7 1_8 1.38929
12 1_8 *6:A 0
13 1_7 1_9 10.5143
14 1_9 1_10 0.625
15 1_10 1_11 0.5
16 1_11 *7:A 0
17 1_10 1_12 4.11429
18 1_12 *8:A 0
19 1_9 1_13 3.08571
20 1_13 *9:A 0
21 1_13 1_14 8.275
22 1_14 *10:A 0
23 1_14 1_15 3.69643
24 1_15 *11:A 0
25 1_15 1_16 1.5
26 1_16 1_17 10.5429
27 1_17 1_18 2.31429
28 1_18 *12:A 0
29 1_17 1_19 7.75
30 1_19 1_20 0.514286
31 1_20 *13:D 0
32 1_19 1_21 2.25
33 1_21 1_22 0.514286
34 1_22 *14:A 0
35 1_21 1_23 0.5
36 1_23 1_24 2.31429
37 1_24 *15:A 0
38 1_23 1_25 7.39286
39 1_25 *16:B 0
40 1_16 1_26 3.96071
41 1_26 *17:A 0
*END
*D_NET *18 0.0257184
*CONN
*I *19:Y O *D _323
*I *20:A I *L 0
*I *21:A I *L 0
*I *22:A I *L 0
*I *23:A I *L 0
*I *24:B I *L 0
*I *25:A I *L 0
*I *26:A I *L 0
*I *27:A I *L 0
*I *28:A I *L 0
*I *29:A I *L 0
*I *30:A I *L 0
*I *31:A I *L 0
*I *32:A I *L 0
*I *33:B I *L 0
*I *34:A I *L 0
*CAP
1 18_1 0.0001872
2 18_2 0.0008064
3 18_3 0.0006552
4 18_4 0.001728
5 18_5 0.0001512
6 18_6 0.000972
7 18_7 0.0001512
8 18_8 0.0011592
9 18_9 0.0001224
10 18_10 0.0014544
11 18_11 0.0001512
12 18_12 0.0019872
13 18_13 0.0008928
14 18_14 0.0009072
15 18_15 0.0004536
16 18_16 0.0003168
17 18_17 0.00126
18 18_18 0.0016632
19 18_19 0.0013752
20 18_20 0.0011592
21 18_21 0.0001008
22 18_22 0.0032112
23 18_23 0.0001008
24 18_24 0.000576
25 18_25 0.0001008
26 18_26 0.0012528
27 18_27 0.000828
28 18_28 0.0019944
*RES
1 *19:Y 18_1 0.896429
2 18_1 18_2 2.88214
3 18_2 18_3 3.34286
4 18_3 *20:A 0
5 18_2 18_4 7.23214
6 18_4 18_5 0.771429
7 18_5 *21:A 0
8 18_4 18_6 3.375
9 18_6 18_7 0.771429
10 18_7 *22:A 0
11 18_6 18_8 4.68214
12 18_8 *23:A 0
13 18_1 18_9 0.507143
14 18_9 18_10 7.18571
15 18_10 18_11 0.771429
16 18_11 *24:B 0
17 18_10 18_12 7.96786
18 18_12 *25:A 0
19 18_12 18_13 3.26429
20 18_13 18_14 4.62857
21 18_14 18_15 2.31429
22 18_15 *26:A 0
23 18_14 18_16 1.26429
24 18_16 *27:A 0
25 18_13 18_17 4.375
26 18_17 18_18 8.48571
27 18_18 *28:A 0
28 18_17 18_19 5.02143
29 18_19 18_20 5.91429
30 18_20 18_21 0.514286
31 18_21 *29:A 0
32 18_20 18_22 15.2571
33 18_22 18_23 0.514286
34 18_23 *30:A 0
35 18_22 18_24 2
36 18_24 18_25 0.514286
37 18_25 *31:A 0
38 18_24 18_26 4.51429
39 18_26 *32:A 0
40 18_19 18_27 2.875
41 18_27 *33:B 0
42 18_9 18_28 9.47143
43 18_28 *34:A 0
*END
*D_NET *35 0.0115848
*CONN
*I *36:Y O *D CLKBUF1
*I *37:CLK I *L 0
*I *38:CLK I *L 0
*I *39:CLK I *L 0
*I *40:CLK I *L 0
*I *41:CLK I *L 0
*I *42:CLK I *L 0
*I *43:CLK I *L 0
*I *44:CLK I *L 0
*CAP
1 35_1 0.001656
2 35_2 3.6e-05
3 35_3 0.000972
4 35_4 3.6e-05
5 35_5 0.000468
6 35_6 0.0007056
7 35_7 0.0007776
8 35_8 0.0013608
9 35_9 0.0001008
10 35_10 3.6e-05
11 35_11 0.0014616
12 35_12 0.0019584
13 35_13 0.002016
*RES
1 *36:Y 35_1 7.80357
2 35_1 *37:CLK 0
3 35_1 35_2 0.125
4 35_2 35_3 3.375
5 35_3 35_4 0.125
6 35_4 *38:CLK 0
7 35_4 35_5 1.625
8 35_5 *39:CLK 0
9 35_5 35_6 2.77857
10 35_6 35_7 3.02857
11 35_7 *40:CLK 0
12 35_6 35_8 6.94286
13 35_8 35_9 0.514286
14 35_9 *41:CLK 0
15 35_8 35_10 0.125
16 35_10 35_11 6.63571
17 35_11 *42:CLK 0
18 35_10 35_12 8.93571
19 35_12 *43:CLK 0
20 35_2 35_13 9.05357
21 35_13 *44:CLK 0
*END
*D_NET *45 0.0086688
*CONN
*I *46:Y O *D CLKBUF1
*I *47:CLK I *L 0
*I *48:CLK I *L 0
*I *49:CLK I *L 0
*I *50:CLK I *L 0
*I *51:CLK I *L 0
*I *52:CLK I *L 0
*I *53:CLK I *L 0
*I *54:CLK I *L 0
*CAP
1 45_1 0.001512
2 45_2 0.0009504
3 45_3 0.0001008
4 45_4 0.000972
5 45_5 0.0001008
6 45_6 0.000396
7 45_7 0.0006624
8 45_8 0.0001008
9 45_9 0.0013104
10 45_10 0.000936
11 45_11 0.0009576
12 45_12 0.0006696
*RES
1 *46:Y 45_1 7.71429
2 45_1 *47:CLK 0
3 45_1 45_2 4.61429
4 45_2 45_3 0.514286
5 45_3 *48:CLK 0
6 45_2 45_4 3.375
7 45_4 45_5 0.514286
8 45_5 *49:CLK 0
9 45_4 45_6 1.375
10 45_6 45_7 2.38214
11 45_7 45_8 0.514286
12 45_8 *50:CLK 0
13 45_7 45_9 6.68571
14 45_9 *51:CLK 0
15 45_9 45_10 3.25
16 45_10 *52:CLK 0
17 45_6 45_11 4.88571
18 45_11 *53:CLK 0
19 45_1 45_12 2.65357
20 45_12 *54:CLK 0
*END
*D_NET *55 0.0079632
*CONN
*I *56:Y O *D CLKBUF1
*I *57:CLK I *L 0
*I *58:CLK I *L 0
*I *59:CLK I *L 0
*I *60:CLK I *L 0
*I *61:CLK I *L 0
*I *62:CLK I *L 0
*I *63:CLK I *L 0
*I *64:CLK I *L 0
*CAP
1 55_1 0.000252
2 55_2 0.0008568
3 55_3 0.000468
4 55_4 3.6e-05
5 55_5 0.0010152
6 55_6 0.0007488
7 55_7 0.00126
8 55_8 0.0001008
9 55_9 0.0001008
10 55_10 0.0013104
11 55_11 0.000972
12 55_12 0.0001008
13 55_13 0.0007416
*RES
1 *56:Y 55_1 1.28571
2 55_1 55_2 4.37143
3 55_2 *57:CLK 0
4 55_2 55_3 1.625
5 55_3 55_4 0.125
6 55_4 *58:CLK 0
7 55_4 55_5 5.00357
8 55_5 *59:CLK 0
9 55_1 55_6 2.76429
10 55_6 *60:CLK 0
11 55_1 55_7 6.42857
12 55_7 55_8 0.514286
13 55_8 *61:CLK 0
14 55_7 55_9 0.514286
15 55_9 55_10 6.68571
16 55_10 *62:CLK 0
17 55_9 55_11 3.375
18 55_11 55_12 0.514286
19 55_12 *63:CLK 0
20 55_11 55_13 3.31429
21 55_13 *64:CLK 0
*END
*D_NET *65 0.0105048
*CONN
*I *66:Y O *D CLKBUF1
*I *67:CLK I *L 0
*I *68:CLK I *L 0
*I *69:CLK I *L 0
*I *70:CLK I *L 0
*I *71:CLK I *L 0
*I *72:CLK I *L 0
*I *73:CLK I *L 0
*I *74:CLK I *L 0
*CAP
1 65_1 0.000792
2 65_2 0.00054
3 65_3 0.0001008
4 65_4 0.0005688
5 65_5 0.0013104
6 65_6 0.001476
7 65_7 0.0014328
8 65_8 0.0002016
9 65_9 0.000504
10 65_10 0.0002016
11 65_11 0.0020808
12 65_12 0.001296
*RES
1 *66:Y 65_1 3.98214
2 65_1 65_2 1.875
3 65_2 *67:CLK 0
4 65_2 65_3 0.514286
5 65_3 65_4 2.13929
6 65_4 *68:CLK 0
7 65_3 65_5 6.68571
8 65_5 *69:CLK 0
9 65_5 65_6 5.94643
10 65_6 *70:CLK 0
11 65_6 65_7 5.55
12 65_7 65_8 1.02857
13 65_8 *71:CLK 0
14 65_7 65_9 1.75
15 65_9 65_10 1.02857
16 65_10 *72:CLK 0
17 65_9 65_11 9.44286
18 65_11 *73:CLK 0
19 65_1 65_12 5.32143
20 65_12 *74:CLK 0
*END
*D_NET *75 0.0100296
*CONN
*I *76:Y O *D CLKBUF1
*I *77:CLK I *L 0
*I *78:CLK I *L 0
*I *79:CLK I *L 0
*I *80:CLK I *L 0
*I *81:CLK I *L 0
*I *82:CLK I *L 0
*I *83:CLK I *L 0
*I *84:CLK I *L 0
*CAP
1 75_1 0.0001008
2 75_2 0.0009072
3 75_3 0.0001008
4 75_4 0.0006624
5 75_5 0.001512
6 75_6 0.000324
7 75_7 0.000216
8 75_8 0.0013104
9 75_9 0.0001008
10 75_10 0.0010512
11 75_11 0.0001512
12 75_12 0.0021024
13 75_13 0.0001008
14 75_14 0.0013896
*RES
1 *76:Y 75_1 0.514286
2 75_1 75_2 4.62857
3 75_2 75_3 0.514286
4 75_3 *77:CLK 0
5 75_2 75_4 3.20357
6 75_4 *78:CLK 0
7 75_1 75_5 5.66071
8 75_5 *79:CLK 0
9 75_5 75_6 1.125
10 75_6 75_7 0.75
11 75_7 *80:CLK 0
12 75_6 75_8 6.68571
13 75_8 75_9 0.514286
14 75_9 *81:CLK 0
15 75_8 75_10 4.30714
16 75_10 75_11 0.771429
17 75_11 *82:CLK 0
18 75_10 75_12 9.43571
19 75_12 75_13 0.514286
20 75_13 *83:CLK 0
21 75_12 75_14 6.38571
22 75_14 *84:CLK 0
*END
*D_NET *85 0.0085752
*CONN
*I *86:Y O *D CLKBUF1
*I *87:CLK I *L 0
*I *88:CLK I *L 0
*I *89:CLK I *L 0
*I *90:CLK I *L 0
*I *91:CLK I *L 0
*I *92:CLK I *L 0
*I *93:CLK I *L 0
*I *94:CLK I *L 0
*CAP
1 85_1 3.6e-05
2 85_2 0.0007704
3 85_3 0.000648
4 85_4 3.6e-05
5 85_5 0.0002664
6 85_6 0.0009072
7 85_7 0.0014832
8 85_8 0.0001512
9 85_9 0.0004464
10 85_10 0.0015192
11 85_11 0.000468
12 85_12 0.0011448
13 85_13 0.0003456
14 85_14 0.0003528
*RES
1 *86:Y 85_1 0.125
2 85_1 85_2 3.57857
3 85_2 *87:CLK 0
4 85_1 85_3 2.25
5 85_3 85_4 0.125
6 85_4 *88:CLK 0
7 85_4 85_5 1.00714
8 85_5 85_6 4.62857
9 85_6 *89:CLK 0
10 85_5 85_7 5.39643
11 85_7 85_8 0.771429
12 85_8 *90:CLK 0
13 85_7 85_9 1.63214
14 85_9 85_10 7.575
15 85_10 *91:CLK 0
16 85_10 85_11 1.625
17 85_11 *92:CLK 0
18 85_9 85_12 4.13929
19 85_12 85_13 1.52857
20 85_13 *93:CLK 0
21 85_12 85_14 1.8
22 85_14 *94:CLK 0
*END
*D_NET *95 0.0091008
*CONN
*I *96:Y O *D CLKBUF1
*I *97:CLK I *L 0
*I *98:CLK I *L 0
*I *99:CLK I *L 0
*I *100:CLK I *L 0
*I *101:CLK I *L 0
*I *102:CLK I *L 0
*I *103:CLK I *L 0
*I *104:CLK I *L 0
*CAP
1 95_1 0.0001008
2 95_2 0.0008136
3 95_3 3.6e-05
4 95_4 0.000504
5 95_5 0.000828
6 95_6 0.000252
7 95_7 7.2e-05
8 95_8 0.0008064
9 95_9 0.0004536
10 95_10 0.0013104
11 95_11 0.000972
12 95_12 0.000324
13 95_13 0.0001008
14 95_14 0.0012168
15 95_15 0.0013104
*RES
1 *96:Y 95_1 0.514286
2 95_1 95_2 3.975
3 95_2 95_3 0.125
4 95_3 *97:CLK 0
5 95_3 95_4 1.75
6 95_4 *98:CLK 0
7 95_1 95_5 2.875
8 95_5 95_6 1.28571
9 95_6 *99:CLK 0
10 95_5 95_7 0.25
11 95_7 95_8 4.11429
12 95_8 *100:CLK 0
13 95_7 95_9 1.90357
14 95_9 95_10 6.68571
15 95_10 *101:CLK 0
16 95_9 95_11 3.375
17 95_11 95_12 1.125
18 95_12 95_13 0.514286
19 95_13 *102:CLK 0
20 95_12 95_14 6.03214
21 95_14 *103:CLK 0
22 95_11 95_15 6.68571
23 95_15 *104:CLK 0
*END
*D_NET *105 0.0124416
*CONN
*I *106:Y O *D _297
*I *107:B I *L 0
*I *108:B I *L 0
*I *109:B I *L 0
*I *110:B I *L 0
*I *111:B I *L 0
*I *112:B I *L 0
*I *113:B I *L 0
*I *114:B I *L 0
*CAP
1 105_1 0.0015624
2 105_2 0.0001008
3 105_3 0.000288
4 105_4 0.0008424
5 105_5 0.0001512
6 105_6 0.0053064
7 105_7 0.0005328
8 105_8 0.0006552
9 105_9 0.0002016
10 105_10 0.000576
11 105_11 0.0006768
12 105_12 0.0008064
13 105_13 0.0001008
14 105_14 0.0006408
*RES
1 *106:Y 105_1 7.56071
2 105_1 105_2 0.514286
3 105_2 *107:B 0
4 105_1 105_3 1
5 105_3 105_4 3.00714
6 105_4 105_5 0.771429
7 105_5 *108:B 0
8 105_4 105_6 19.3286
9 105_6 105_7 2.01429
10 105_7 *109:B 0
11 105_6 105_8 3.34286
12 105_8 105_9 1.02857
13 105_9 *110:B 0
14 105_8 105_10 2
15 105_10 *111:B 0
16 105_10 105_11 2.51429
17 105_11 *112:B 0
18 105_3 105_12 4.11429
19 105_12 105_13 0.514286
20 105_13 *113:B 0
21 105_12 105_14 2.38929
22 105_14 *114:B 0
*END
*D_NET *115 0.01062
*CONN
*I *116:Y O *D _305
*I *117:B I *L 0
*I *118:B I *L 0
*I *119:B I *L 0
*I *120:B I *L 0
*I *121:B I *L 0
*I *122:B I *L 0
*I *123:B I *L 0
*I *124:B I *L 0
*CAP
1 115_1 0.0007632
2 115_2 0.0006552
3 115_3 0.000108
4 115_4 0.0050112
5 115_5 0.0002016
6 115_6 0.000612
7 115_7 0.0001512
8 115_8 0.000108
9 115_9 0.0005832
10 115_10 0.000972
11 115_11 0.0007416
12 115_12 0.000288
13 115_13 0.0004248
*RES
1 *116:Y 115_1 2.89643
2 115_1 *117:B 0
3 115_1 115_2 3.34286
4 115_2 115_3 0.375
5 115_3 *118:B 0
6 115_3 115_4 17.6464
7 115_4 115_5 1.02857
8 115_5 *119:B 0
9 115_4 115_6 2.125
10 115_6 115_7 0.771429
11 115_7 *120:B 0
12 115_6 115_8 0.375
13 115_8 115_9 2.27143
14 115_9 *121:B 0
15 115_8 115_10 4.60714
16 115_10 *122:B 0
17 115_2 115_11 3.725
18 115_11 115_12 1
19 115_12 *123:B 0
20 115_11 115_13 1.63929
21 115_13 *124:B 0
*END
*D_NET *125 0.0145008
*CONN
*I *126:Y O *D _491
*I *127:B I *L 0
*I *128:B I *L 0
*I *129:B I *L 0
*I *130:B I *L 0
*I *131:B I *L 0
*I *132:B I *L 0
*I *133:B I *L 0
*I *134:B I *L 0
*CAP
1 125_1 0.0021528
2 125_2 0.0001008
3 125_3 3.6e-05
4 125_4 0.000612
5 125_5 0.0001512
6 125_6 0.0042336
7 125_7 0.0001008
8 125_8 0.0006408
9 125_9 0.0002448
10 125_10 0.0012816
11 125_11 0.0001008
12 125_12 0.0011376
13 125_13 0.002736
14 125_14 0.0001008
15 125_15 0.0008712
*RES
1 *126:Y 125_1 10.1036
2 125_1 125_2 0.514286
3 125_2 *127:B 0
4 125_1 125_3 0.125
5 125_3 125_4 2.125
6 125_4 125_5 0.771429
7 125_5 *128:B 0
8 125_4 125_6 19.1357
9 125_6 125_7 0.514286
10 125_7 *129:B 0
11 125_6 125_8 3.21071
12 125_8 125_9 1.01429
13 125_9 *130:B 0
14 125_8 125_10 6.42143
15 125_10 125_11 0.514286
16 125_11 *131:B 0
17 125_10 125_12 5.1
18 125_12 *132:B 0
19 125_3 125_13 11.9643
20 125_13 125_14 0.514286
21 125_14 *133:B 0
22 125_13 125_15 4.09286
23 125_15 *134:B 0
*END