*SPEF "IEEE 1481.1999"
*DESIGN "cordic_element"
*DATE "21:01:15 Thursday February 27, 2025"
*VENDOR "unknown"
*PROGRAM "qrouter"
*VERSION "unknown"
*DESIGN_FLOW "qflow"
*DIVIDER /
*DELIMITER :
*BUS_DELIMITER <>
*T_UNIT 1 PS
*C_UNIT 1 FF
*R_UNIT 1 OHM
*L_UNIT 1 HENRY

*NAME_MAP
*1 _119_
*2 _876_
*3 _1486_
*4 _1436_
*5 _1438_
*6 _1437_
*7 _1435_
*8 _895_
*9 _905_
*10 _1460_
*11 _1462_
*12 _1463_
*13 _1461_
*14 _877_
*15 _914_
*16 _923_
*17 _886_
*18 _625_
*19 _1414_
*20 _1415_
*21 _1416_
*22 _1470_
*23 _1471_
*24 _1468_
*25 _1469_
*26 _1418_
*27 _1417_
*28 _1444_
*29 _1443_
*30 _1446_
*31 _1445_
*32 _629_
*33 _1420_
*34 _1449_
*35 _1448_
*36 _1450_
*37 _1451_
*38 _1423_
*39 _1424_
*40 _1422_
*41 _1421_
*42 _1474_
*43 _1475_
*44 _1472_
*45 _1473_
*46 _632_
*47 _1425_
*48 _1480_
*49 _1479_
*50 _1477_
*51 _1476_
*52 _1428_
*53 _1427_
*54 _1426_
*55 _1452_
*56 _1453_
*57 _1455_
*58 _1454_
*59 _1429_
*60 _635_
*61 _1430_
*62 _1458_
*63 _1459_
*64 _1457_
*65 _1456_
*66 _1432_
*67 _1431_
*68 _1434_
*69 _1433_
*70 _1483_
*71 _1484_
*72 _1482_
*73 _1481_
*74 LoadCtl[4]
*75 _1794_
*76 _864_
*77 _880_
*78 _881_
*79 _865_
*80 _1795_
*81 _897_
*82 _889_
*83 _890_
*84 _909_
*85 _918_
*86 _917_
*87 _908_
*88 clk_bF_buf0
*89 CLKBUF1_insert19
*90 _1743_
*91 _1745_
*92 _1731_
*93 _1733_
*94 _1732_
*95 _1742_
*96 _1788_
*97 _1744_
*98 _1748_
*99 _1752_
*100 clk_bF_buf1
*101 CLKBUF1_insert18
*102 _1803_
*103 _1801_
*104 _1799_
*105 _1805_
*106 _1800_
*107 _1804_
*108 _1775_
*109 _1806_
*110 _1807_
*111 _1802_
*112 clk_bF_buf2
*113 CLKBUF1_insert17
*114 _1771_
*115 _1773_
*116 _1772_
*117 _1777_
*118 _1774_
*119 _1770_
*120 _1760_
*121 _1763_
*122 _1762_
*123 _1782_
*124 clk_bF_buf3
*125 CLKBUF1_insert16
*126 _1735_
*127 _1734_
*128 _1781_
*129 _1778_
*130 _1746_
*131 _1780_
*132 _1747_
*133 _1749_
*134 _1797_
*135 _1736_
*136 clk_bF_buf4
*137 CLKBUF1_insert15
*138 _1767_
*139 _1768_
*140 _1769_
*141 _1766_
*142 _1755_
*143 _1757_
*144 _1754_
*145 _1758_
*146 _1790_
*147 _1756_
*148 clk_bF_buf5
*149 CLKBUF1_insert14
*150 _1729_
*151 _1776_
*152 _1798_
*153 _1795_
*154 _1796_
*155 _1765_
*156 _1764_
*157 _1791_
*158 _1792_
*159 _1728_
*160 clk_bF_buf6
*161 CLKBUF1_insert13
*162 _1759_
*163 _1779_
*164 _1761_
*165 _1784_
*166 _1785_
*167 _1740_
*168 _1739_
*169 _1741_
*170 _1737_
*171 _1738_
*172 clk_bF_buf7
*173 CLKBUF1_insert12
*174 _1793_
*175 _1753_
*176 _1751_
*177 _1794_
*178 _1750_
*179 _1789_
*180 _1786_
*181 _1787_
*182 _1730_
*183 _1783_
*184 _117_
*185 _874_
*186 _887_
*187 _924_
*188 _915_
*189 _878_
*190 _1425_
*191 _906_
*192 _896_
*193 _1419_
*194 _1430_
*195 _1414_
*196 Stg_0_bF_buf0
*197 BUFX2_insert6
*198 _1030_
*199 _1008_
*200 _1007_
*201 _1032_
*202 _1033_
*203 _1011_
*204 _1053_
*205 _1052_
*206 _1029_
*207 Stg_0_bF_buf1
*208 BUFX2_insert5
*209 _1314_
*210 _930_
*211 _929_
*212 _1507_
*213 _1262_
*214 _1330_
*215 _968_
*216 _957_
*217 _982_
*218 Stg_0_bF_buf2
*219 BUFX2_insert4
*220 _1024_
*221 _1001_
*222 _1002_
*223 _1025_
*224 _1003_
*225 _1026_
*226 _1023_
*227 _1010_
*228 _1000_
*229 Stg_0_bF_buf3
*230 BUFX2_insert3
*231 _975_
*232 _960_
*233 _936_
*234 _937_
*235 _985_
*236 _1501_
*237 _1550_
*238 _977_
*239 _974_
*240 Stg_0_bF_buf4
*241 BUFX2_insert2
*242 _940_
*243 _978_
*244 _986_
*245 _939_
*246 _1270_
*247 _1512_
*248 _967_
*249 _948_
*250 _961_
*251 Stg_0_bF_buf5
*252 BUFX2_insert1
*253 _1541_
*254 _1549_
*255 _1564_
*256 _1103_
*257 _1102_
*258 _1080_
*259 _1081_
*260 _1565_
*261 _1540_
*262 Stg_0_bF_buf6
*263 BUFX2_insert0
*264 _971_
*265 _1299_
*266 _954_
*267 _933_
*268 _1359_
*269 _958_
*270 _932_
*271 _983_
*272 _970_
*273 _186_
*274 _949_
*275 _1140_
*276 _1073_
*277 _1018_
*278 _950_
*279 _1258_
*280 _1222_
*281 _1205_
*282 _1246_
*283 _1121_
*284 clk
*285 CLKBUF1_insert15
*286 CLKBUF1_insert17
*287 CLKBUF1_insert14
*288 CLKBUF1_insert18
*289 CLKBUF1_insert12
*290 CLKBUF1_insert19
*291 CLKBUF1_insert13
*292 CLKBUF1_insert16
*293 _191_
*294 _955_
*295 _1346_
*296 _1161_
*297 _1645_
*298 _956_
*299 _1689_
*300 _1670_
*301 _1725_
*302 _1713_
*303 _109_
*304 _866_
*305 _872_
*306 _1413_
*307 _1420_
*308 _894_
*309 _904_
*310 _913_
*311 _922_
*312 _885_
*313 _201_
*314 _965_
*315 BUFX2_insert58
*316 BUFX2_insert55
*317 BUFX2_insert52
*318 BUFX2_insert53
*319 BUFX2_insert56
*320 BUFX2_insert57
*321 BUFX2_insert54
*322 _201__bF_buf0
*323 BUFX2_insert58
*324 _1088_
*325 _1113_
*326 _1331_
*327 _1347_
*328 _1348_
*329 _1394_
*330 _1405_
*331 _201__bF_buf1
*332 BUFX2_insert57
*333 _1471_
*334 _1111_
*335 _1109_
*336 _1148_
*337 _1130_
*338 _1134_
*339 _1171_
*340 _201__bF_buf2
*341 BUFX2_insert56
*342 _1684_
*343 _1663_
*344 _1681_
*345 _1683_
*346 _1694_
*347 _1718_
*348 _1697_
*349 _201__bF_buf3
*350 BUFX2_insert55
*351 _1315_
*352 _1063_
*353 _1038_
*354 _1358_
*355 _1300_
*356 _1371_
*357 _1328_
*358 _201__bF_buf4
*359 BUFX2_insert54
*360 _1227_
*361 _1211_
*362 _1169_
*363 _1174_
*364 _1190_
*365 _1196_
*366 _1192_
*367 _201__bF_buf5
*368 BUFX2_insert53
*369 _1661_
*370 _1665_
*371 _1633_
*372 _1638_
*373 _1613_
*374 _1635_
*375 _1608_
*376 _201__bF_buf6
*377 BUFX2_insert52
*378 _1570_
*379 _1645_
*380 _1591_
*381 _1576_
*382 _1505_
*383 _1547_
*384 _981_
*385 Stg_2_bF_buf1
*386 BUFX2_insert33
*387 _988_
*388 _1504_
*389 _1087_
*390 _1521_
*391 _1062_
*392 _963_
*393 _980_
*394 Stg_2_bF_buf2
*395 BUFX2_insert32
*396 _942_
*397 _1035_
*398 _1013_
*399 _1346_
*400 _1272_
*401 _1271_
*402 _1299_
*403 Stg_2_bF_buf3
*404 BUFX2_insert31
*405 _1553_
*406 _1569_
*407 _946_
*408 _1659_
*409 _1676_
*410 _1692_
*411 _1568_
*412 Stg_2_bF_buf4
*413 BUFX2_insert30
*414 _1515_
*415 _1107_
*416 _1106_
*417 _1224_
*418 _1189_
*419 _1129_
*420 _1128_
*421 _164__bF_buf2
*422 BUFX2_insert22
*423 _959_
*424 _984_
*425 _947_
*426 _1513_
*427 _1509_
*428 _1517_
*429 _972_
*430 _164__bF_buf3
*431 BUFX2_insert21
*432 _1082_
*433 _1587_
*434 _1083_
*435 _1605_
*436 _1586_
*437 _1144_
*438 _1127_
*439 _164__bF_buf4
*440 BUFX2_insert20
*441 _1055_
*442 _987_
*443 _1542_
*444 _1543_
*445 _1034_
*446 _1054_
*447 _1012_
*448 _188__bF_buf2
*449 BUFX2_insert9
*450 _953_
*451 _1562_
*452 _1621_
*453 _1716_
*454 _1583_
*455 _1672_
*456 _1715_
*457 _188__bF_buf3
*458 BUFX2_insert8
*459 _1369_
*460 _1368_
*461 _1326_
*462 _1121_
*463 _1246_
*464 _1180_
*465 _1181_
*466 _188__bF_buf4
*467 BUFX2_insert7
*468 _1410_
*469 _1412_
*470 _1389_
*471 _1370_
*472 _1312_
*473 _1048_
*474 _1075_
*475 Stg[0]
*476 BUFX2_insert6
*477 BUFX2_insert4
*478 BUFX2_insert5
*479 BUFX2_insert2
*480 BUFX2_insert3
*481 BUFX2_insert1
*482 BUFX2_insert0
*483 _192_
*484 _956_
*485 _1619_
*486 _1581_
*487 _1560_
*488 _996_
*489 _1098_
*490 _1046_
*491 _1532_
*492 _492_
*493 _1270_
*494 _1511_
*495 _1506_
*496 _1272_
*497 _1358_
*498 _1271_
*499 _1285_
*500 _1302_
*501 _113_
*502 _870_
*503 _871_
*504 _1425_
*505 _893_
*506 _903_
*507 _884_
*508 _912_
*509 _921_
*510 _709_
*511 _1536_
*512 _1602_
*513 _1562_
*514 _1621_
*515 _1715_
*516 _1690_
*517 _1726_
*518 _1583_
*519 _183__bF_buf2
*520 BUFX2_insert44
*521 _1632_
*522 _1631_
*523 _1168_
*524 _1146_
*525 _1167_
*526 _1210_
*527 _183__bF_buf3
*528 BUFX2_insert43
*529 _955_
*530 _1005_
*531 _1314_
*532 _1017_
*533 _1358_
*534 _1263_
*535 LoadCtl_0_bF_buf1
*536 BUFX2_insert37
*537 _895_
*538 _905_
*539 _1465_
*540 _1467_
*541 _1464_
*542 _1466_
*543 LoadCtl_0_bF_buf2
*544 BUFX2_insert36
*545 _876_
*546 _1493_
*547 _1494_
*548 _873_
*549 _1487_
*550 _1489_
*551 LoadCtl_0_bF_buf3
*552 BUFX2_insert35
*553 _1492_
*554 _1491_
*555 _914_
*556 _923_
*557 _877_
*558 _886_
*559 Stg_2_bF_buf0
*560 BUFX2_insert34
*561 _1359_
*562 _1286_
*563 _1301_
*564 _1287_
*565 _1644_
*566 _1601_
*567 LoadCtl_6_bF_buf4
*568 BUFX2_insert25
*569 _951_
*570 _1280_
*571 _1294_
*572 _952_
*573 _1356_
*574 _1355_
*575 _164__bF_buf0
*576 BUFX2_insert24
*577 _962_
*578 _1551_
*579 _1552_
*580 _941_
*581 _979_
*582 _1519_
*583 _164__bF_buf1
*584 BUFX2_insert23
*585 _1027_
*586 _1004_
*587 _934_
*588 _1314_
*589 _1299_
*590 _1285_
*591 _188__bF_buf0
*592 BUFX2_insert11
*593 _1267_
*594 _1269_
*595 _1020_
*596 _1311_
*597 _1310_
*598 _1268_
*599 _188__bF_buf1
*600 BUFX2_insert10
*601 _1498_
*602 _997_
*603 _998_
*604 _1282_
*605 _1047_
*606 _1099_
*607 Xin1[0]
*608 _1762_
*609 _1069_
*610 _1067_
*611 _928_
*612 _970_
*613 _983_
*614 _957_
*615 _436_
*616 _1210_
*617 _1216_
*618 _1217_
*619 _1230_
*620 _1213_
*621 _1226_
*622 _1212_
*623 Xin[0]
*624 _1439_
*625 _1435_
*626 _1431_
*627 _1426_
*628 _1415_
*629 _1421_
*630 Xin[1]
*631 _1441_
*632 _1437_
*633 _1433_
*634 _1428_
*635 _1423_
*636 _1417_
*637 _112_
*638 _869_
*639 _893_
*640 _903_
*641 _1430_
*642 _870_
*643 _912_
*644 _921_
*645 Yin[0]
*646 _1452_
*647 _1456_
*648 _1464_
*649 _1460_
*650 _1448_
*651 _1443_
*652 Yin[1]
*653 _1450_
*654 _1445_
*655 _1454_
*656 _1458_
*657 _1466_
*658 _1462_
*659 Ain[0]
*660 _1481_
*661 _1468_
*662 _1472_
*663 _1491_
*664 _1485_
*665 _1476_
*666 _749_
*667 _1577_
*668 _1623_
*669 _1625_
*670 _1600_
*671 _1599_
*672 _1617_
*673 _1578_
*674 Ain12b[11]
*675 _1779_
*676 BUFX2_insert48
*677 BUFX2_insert51
*678 BUFX2_insert49
*679 BUFX2_insert47
*680 BUFX2_insert50
*681 Ain12b_11_bF_buf0
*682 BUFX2_insert51
*683 _1066_
*684 _1313_
*685 _1091_
*686 _965_
*687 _1132_
*688 Ain12b_11_bF_buf1
*689 BUFX2_insert50
*690 _1554_
*691 _1614_
*692 _1611_
*693 _1678_
*694 _1573_
*695 Ain12b_11_bF_buf2
*696 BUFX2_insert49
*697 _1036_
*698 _1274_
*699 _1273_
*700 _1404_
*701 _1393_
*702 Ain12b_11_bF_buf3
*703 BUFX2_insert48
*704 _1252_
*705 _1149_
*706 _1135_
*707 _1253_
*708 _1230_
*709 Ain12b_11_bF_buf4
*710 BUFX2_insert47
*711 _1524_
*712 _989_
*713 _1359_
*714 _1285_
*715 _1301_
*716 _183__bF_buf0
*717 BUFX2_insert46
*718 _1588_
*719 _1606_
*720 _1589_
*721 _1607_
*722 _1546_
*723 _183__bF_buf1
*724 BUFX2_insert45
*725 _1145_
*726 _1056_
*727 _1518_
*728 _1510_
*729 _947_
*730 Stg_1_bF_buf2
*731 BUFX2_insert40
*732 _1056_
*733 _1516_
*734 _1508_
*735 _1330_
*736 _1262_
*737 Stg_1_bF_buf3
*738 BUFX2_insert39
*739 _1502_
*740 _1105_
*741 _1104_
*742 _1567_
*743 _1566_
*744 LoadCtl_0_bF_buf0
*745 BUFX2_insert38
*746 _1791_
*747 _1440_
*748 _1439_
*749 _1442_
*750 _1441_
*751 Stg[2]
*752 BUFX2_insert31
*753 BUFX2_insert30
*754 BUFX2_insert33
*755 BUFX2_insert32
*756 BUFX2_insert34
*757 LoadCtl[6]
*758 _1796_
*759 BUFX2_insert26
*760 BUFX2_insert25
*761 BUFX2_insert28
*762 BUFX2_insert27
*763 BUFX2_insert29
*764 LoadCtl_6_bF_buf0
*765 BUFX2_insert29
*766 _1409_
*767 _1408_
*768 _1397_
*769 _1811_
*770 _1387_
*771 LoadCtl_6_bF_buf1
*772 BUFX2_insert28
*773 _1162_
*774 _1259_
*775 _1223_
*776 _1496_
*777 _1163_
*778 LoadCtl_6_bF_buf2
*779 BUFX2_insert27
*780 _1324_
*781 _1141_
*782 _1341_
*783 _1497_
*784 _948_
*785 LoadCtl_6_bF_buf3
*786 BUFX2_insert26
*787 _1533_
*788 _1645_
*789 _1691_
*790 _1648_
*791 _1603_
*792 _164_
*793 _927_
*794 BUFX2_insert24
*795 BUFX2_insert21
*796 BUFX2_insert20
*797 BUFX2_insert23
*798 BUFX2_insert22
*799 _188_
*800 _952_
*801 BUFX2_insert11
*802 BUFX2_insert10
*803 BUFX2_insert9
*804 BUFX2_insert7
*805 BUFX2_insert8
*806 Yin1[1]
*807 _1775_
*808 _1022_
*809 _1000_
*810 _1579_
*811 _1556_
*812 _1557_
*813 _184_
*814 _947_
*815 _1544_
*816 _1503_
*817 _1059_
*818 _1330_
*819 _948_
*820 _202_
*821 _966_
*822 _1438_
*823 _1094_
*824 _1092_
*825 _968_
*826 _1507_
*827 Xin12b[4]
*828 _1760_
*829 _961_
*830 _938_
*831 _967_
*832 _1112_
*833 _982_
*834 Xin12b[5]
*835 _1761_
*836 _976_
*837 _1133_
*838 _939_
*839 _961_
*840 _986_
*841 _212_
*842 _976_
*843 _1156_
*844 _1136_
*845 _1434_
*846 _978_
*847 _1512_
*848 Xin12b[6]
*849 _1758_
*850 _977_
*851 _986_
*852 _1151_
*853 _935_
*854 _960_
*855 Xin12b[7]
*856 _1759_
*857 _1172_
*858 _973_
*859 _960_
*860 _936_
*861 _985_
*862 _416_
*863 _1189_
*864 _1225_
*865 _1190_
*866 _1211_
*867 _1197_
*868 _1191_
*869 Xin12b[8]
*870 _1756_
*871 _1195_
*872 _1194_
*873 _974_
*874 _985_
*875 _1501_
*876 _437_
*877 _1211_
*878 _1212_
*879 _1213_
*880 _1230_
*881 _1216_
*882 _1217_
*883 Ain[1]
*884 _1483_
*885 _1474_
*886 _1478_
*887 _1493_
*888 _1470_
*889 _741_
*890 _1569_
*891 _1609_
*892 _1570_
*893 _1576_
*894 _1591_
*895 _1572_
*896 _777_
*897 _1607_
*898 _1679_
*899 _1610_
*900 _1614_
*901 _1635_
*902 _1608_
*903 _801_
*904 _1632_
*905 _1680_
*906 _1656_
*907 _1634_
*908 _1633_
*909 _1639_
*910 LoadCtl[2]
*911 _1792_
*912 _869_
*913 _868_
*914 _866_
*915 _1793_
*916 _883_
*917 _183_
*918 _946_
*919 BUFX2_insert44
*920 BUFX2_insert45
*921 BUFX2_insert46
*922 BUFX2_insert43
*923 Stg[1]
*924 BUFX2_insert40
*925 BUFX2_insert41
*926 BUFX2_insert39
*927 BUFX2_insert42
*928 Stg_1_bF_buf0
*929 BUFX2_insert42
*930 _1520_
*931 _1514_
*932 _927_
*933 _1125_
*934 Stg_1_bF_buf1
*935 BUFX2_insert41
*936 _1533_
*937 _954_
*938 _1301_
*939 _1271_
*940 LoadCtl[0]
*941 _1790_
*942 BUFX2_insert35
*943 BUFX2_insert36
*944 BUFX2_insert37
*945 BUFX2_insert38
*946 _163_
*947 _926_
*948 _1465_
*949 _1003_
*950 _943_
*951 _944_
*952 Yin12b[7]
*953 _1771_
*954 _1007_
*955 _1028_
*956 _1637_
*957 _1653_
*958 _168_
*959 _931_
*960 _1021_
*961 _1018_
*962 _933_
*963 _1440_
*964 Yin1[0]
*965 _1774_
*966 _1525_
*967 _1526_
*968 _999_
*969 _1025_
*970 _200_
*971 _964_
*972 _1467_
*973 _990_
*974 _992_
*975 _1026_
*976 _262_
*977 _1028_
*978 _1640_
*979 _1650_
*980 _1455_
*981 _1030_
*982 Yin12b[8]
*983 _1768_
*984 _1053_
*985 _1029_
*986 _1667_
*987 _1447_
*988 _265_
*989 _1031_
*990 _1033_
*991 _1459_
*992 _1626_
*993 _1595_
*994 _269_
*995 _1035_
*996 _1063_
*997 _1037_
*998 _1036_
*999 _1065_
*1000 _205_
*1001 _969_
*1002 _1442_
*1003 _971_
*1004 _1041_
*1005 _1039_
*1006 _284_
*1007 _1051_
*1008 _1451_
*1009 _1682_
*1010 _1703_
*1011 _1052_
*1012 _292_
*1013 _1059_
*1014 _1060_
*1015 _1085_
*1016 _1328_
*1017 _1371_
*1018 _295_
*1019 _1062_
*1020 _1078_
*1021 _1101_
*1022 _1066_
*1023 _1064_
*1024 _311_
*1025 _1079_
*1026 _1699_
*1027 _1444_
*1028 _1103_
*1029 _1080_
*1030 _331_
*1031 _1100_
*1032 _1122_
*1033 _1119_
*1034 _1118_
*1035 _1158_
*1036 _332_
*1037 _1101_
*1038 _1111_
*1039 _1123_
*1040 _1142_
*1041 _1109_
*1042 _338_
*1043 _1107_
*1044 _1108_
*1045 _1114_
*1046 _1123_
*1047 _1142_
*1048 _175_
*1049 _938_
*1050 _940_
*1051 _1511_
*1052 _1432_
*1053 _1115_
*1054 _353_
*1055 _1123_
*1056 _1166_
*1057 _1135_
*1058 _1124_
*1059 _1132_
*1060 _356_
*1061 _1126_
*1062 _1446_
*1063 _1167_
*1064 _1127_
*1065 _1249_
*1066 _359_
*1067 _1129_
*1068 _1142_
*1069 _1131_
*1070 _1135_
*1071 _1130_
*1072 _172_
*1073 _935_
*1074 _937_
*1075 _1427_
*1076 _1164_
*1077 _1152_
*1078 _394_
*1079 _1166_
*1080 _1171_
*1081 _1174_
*1082 _1192_
*1083 _1169_
*1084 _396_
*1085 _1168_
*1086 _1169_
*1087 _1186_
*1088 _1171_
*1089 _1173_
*1090 _413_
*1091 _1186_
*1092 _1190_
*1093 _1211_
*1094 _1196_
*1095 _1225_
*1096 _421_
*1097 _1194_
*1098 _1199_
*1099 _1221_
*1100 _1238_
*1101 _1208_
*1102 Xin12b[9]
*1103 _1757_
*1104 _1215_
*1105 _1214_
*1106 _1501_
*1107 _1550_
*1108 _440_
*1109 _1214_
*1110 _1239_
*1111 _1219_
*1112 _1221_
*1113 _1238_
*1114 _458_
*1115 _1233_
*1116 _1549_
*1117 _1565_
*1118 _1416_
*1119 _1236_
*1120 _471_
*1121 _1247_
*1122 _1418_
*1123 _1248_
*1124 _1631_
*1125 _1586_
*1126 _484_
*1127 _1261_
*1128 _1286_
*1129 _1263_
*1130 _1644_
*1131 _1601_
*1132 _536_
*1133 _1317_
*1134 _1344_
*1135 _1322_
*1136 _1321_
*1137 _1327_
*1138 _570_
*1139 _1353_
*1140 _1357_
*1141 _1380_
*1142 _1354_
*1143 _1355_
*1144 _599_
*1145 _1384_
*1146 _1402_
*1147 _1385_
*1148 _1386_
*1149 _1391_
*1150 _609_
*1151 _1395_
*1152 _1399_
*1153 _1400_
*1154 _1397_
*1155 _1396_
*1156 _137_
*1157 _897_
*1158 _1413_
*1159 _1419_
*1160 _899_
*1161 _900_
*1162 _199_
*1163 _963_
*1164 _1539_
*1165 _1500_
*1166 _989_
*1167 _994_
*1168 _678_
*1169 _1504_
*1170 _1563_
*1171 _1539_
*1172 _1505_
*1173 _1523_
*1174 _735_
*1175 _1563_
*1176 _1609_
*1177 _1570_
*1178 _1576_
*1179 _1591_
*1180 _766_
*1181 _1595_
*1182 _1624_
*1183 _1627_
*1184 _1618_
*1185 _1598_
*1186 _774_
*1187 _1604_
*1188 _1608_
*1189 _1613_
*1190 _1635_
*1191 _1679_
*1192 _779_
*1193 _1609_
*1194 _1614_
*1195 _1656_
*1196 _1630_
*1197 _1611_
*1198 _780_
*1199 _1610_
*1200 _1613_
*1201 _1630_
*1202 _1611_
*1203 _1656_
*1204 _785_
*1205 _1615_
*1206 _1652_
*1207 _1708_
*1208 _1616_
*1209 _1622_
*1210 _824_
*1211 _1656_
*1212 _1661_
*1213 _1663_
*1214 _1675_
*1215 _1684_
*1216 _827_
*1217 _1659_
*1218 _1660_
*1219 _1675_
*1220 _1684_
*1221 _1666_
*1222 _836_
*1223 _1668_
*1224 _1711_
*1225 _1705_
*1226 _1670_
*1227 _1669_
*1228 _843_
*1229 _1676_
*1230 _1681_
*1231 _1677_
*1232 _1683_
*1233 _1694_
*1234 Xin1[1]
*1235 _1763_
*1236 _966_
*1237 _929_
*1238 _957_
*1239 _982_
*1240 Xin0[1]
*1241 _1765_
*1242 _969_
*1243 _932_
*1244 _958_
*1245 _983_
*1246 _240_
*1247 _1005_
*1248 _1017_
*1249 _1065_
*1250 _1014_
*1251 Yin12b[6]
*1252 _1770_
*1253 _1032_
*1254 _1006_
*1255 _1615_
*1256 _241_
*1257 _1006_
*1258 _1008_
*1259 _1453_
*1260 _1612_
*1261 Yin12b[4]
*1262 _1772_
*1263 _1009_
*1264 _1577_
*1265 _1023_
*1266 _244_
*1267 _1009_
*1268 _1457_
*1269 _1574_
*1270 _1011_
*1271 Yin12b[5]
*1272 _1773_
*1273 _1597_
*1274 _1031_
*1275 _1010_
*1276 _247_
*1277 _1012_
*1278 _1107_
*1279 _1013_
*1280 _1016_
*1281 _249_
*1282 _1014_
*1283 _1063_
*1284 _1038_
*1285 _1015_
*1286 Xin0[0]
*1287 _1764_
*1288 _958_
*1289 _931_
*1290 _1015_
*1291 _252_
*1292 _1017_
*1293 _1021_
*1294 _1018_
*1295 _1036_
*1296 _255_
*1297 _1021_
*1298 _1042_
*1299 _1049_
*1300 _1043_
*1301 _273_
*1302 _1039_
*1303 _1040_
*1304 _1045_
*1305 _1049_
*1306 _275_
*1307 _1041_
*1308 _1042_
*1309 _1049_
*1310 _1044_
*1311 _282_
*1312 _1049_
*1313 _1076_
*1314 _1073_
*1315 _1050_
*1316 Yin12b[9]
*1317 _1769_
*1318 _1686_
*1319 _1051_
*1320 _1081_
*1321 _289_
*1322 _1056_
*1323 _1503_
*1324 _1544_
*1325 _1057_
*1326 _298_
*1327 _1065_
*1328 _1066_
*1329 _1078_
*1330 _1101_
*1331 _310_
*1332 _1078_
*1333 _1088_
*1334 _1113_
*1335 _1089_
*1336 _319_
*1337 _1087_
*1338 _1088_
*1339 _1101_
*1340 _1090_
*1341 Yin12b[11]
*1342 _1767_
*1343 _1126_
*1344 _1248_
*1345 _1102_
*1346 _343_
*1347 _1112_
*1348 _1116_
*1349 _1155_
*1350 _1122_
*1351 _348_
*1352 _1117_
*1353 _1122_
*1354 _1118_
*1355 _1119_
*1356 _357_
*1357 _1127_
*1358 _1144_
*1359 _1128_
*1360 _1209_
*1361 _361_
*1362 _1131_
*1363 _1166_
*1364 _1132_
*1365 _1134_
*1366 _366_
*1367 _1136_
*1368 _1157_
*1369 _1137_
*1370 _1154_
*1371 _371_
*1372 _1142_
*1373 _1149_
*1374 _1143_
*1375 _1186_
*1376 _376_
*1377 _1147_
*1378 _1186_
*1379 _1148_
*1380 _1166_
*1381 _377_
*1382 _1148_
*1383 _1150_
*1384 _1152_
*1385 _1164_
*1386 _378_
*1387 _1149_
*1388 _1150_
*1389 _1164_
*1390 _1152_
*1391 _382_
*1392 _1153_
*1393 _1159_
*1394 _1184_
*1395 _1160_
*1396 _387_
*1397 _1158_
*1398 _1159_
*1399 _1184_
*1400 _1160_
*1401 _395_
*1402 _1167_
*1403 _1168_
*1404 _1210_
*1405 _1188_
*1406 _209_
*1407 _973_
*1408 _975_
*1409 _1176_
*1410 _1429_
*1411 _405_
*1412 _1177_
*1413 _1184_
*1414 _1178_
*1415 _1179_
*1416 _410_
*1417 _1183_
*1418 _1203_
*1419 _1240_
*1420 _1185_
*1421 _411_
*1422 _1184_
*1423 _1240_
*1424 _1185_
*1425 _1203_
*1426 _426_
*1427 _1199_
*1428 _1239_
*1429 _1200_
*1430 _1202_
*1431 _441_
*1432 _1215_
*1433 _1218_
*1434 _1424_
*1435 _1541_
*1436 _444_
*1437 _1218_
*1438 _1239_
*1439 _1219_
*1440 _1221_
*1441 _449_
*1442 _1224_
*1443 _1229_
*1444 _1234_
*1445 _1228_
*1446 _454_
*1447 _1229_
*1448 _1253_
*1449 _1231_
*1450 _1235_
*1451 _455_
*1452 _1230_
*1453 _1254_
*1454 _1234_
*1455 _1231_
*1456 Xin12b[10]
*1457 _1754_
*1458 _1232_
*1459 _1540_
*1460 _1233_
*1461 _457_
*1462 _1232_
*1463 _1237_
*1464 _1256_
*1465 _1257_
*1466 _466_
*1467 _1241_
*1468 _1256_
*1469 _1257_
*1470 _1245_
*1471 Xin12b[11]
*1472 _1755_
*1473 _1249_
*1474 _1247_
*1475 _1564_
*1476 _475_
*1477 _1251_
*1478 _1252_
*1479 _1719_
*1480 _1720_
*1481 _483_
*1482 _1260_
*1483 _1264_
*1484 _1265_
*1485 _1492_
*1486 _190_
*1487 _954_
*1488 _1261_
*1489 _1328_
*1490 _955_
*1491 _486_
*1492 _1263_
*1493 _1273_
*1494 _1265_
*1495 _1264_
*1496 _487_
*1497 _1264_
*1498 _1266_
*1499 _1278_
*1500 _1279_
*1501 _494_
*1502 _1272_
*1503 _1313_
*1504 _1273_
*1505 _1274_
*1506 _496_
*1507 _1274_
*1508 _1275_
*1509 _1284_
*1510 _1276_
*1511 Ain0[1]
*1512 _1789_
*1513 _1283_
*1514 _1276_
*1515 _1275_
*1516 Ain1[0]
*1517 _1786_
*1518 _1288_
*1519 _1289_
*1520 _1487_
*1521 _539_
*1522 _1320_
*1523 _1345_
*1524 _1321_
*1525 _1323_
*1526 _541_
*1527 _1322_
*1528 _1324_
*1529 _1327_
*1530 _1343_
*1531 _542_
*1532 _1323_
*1533 _1324_
*1534 _1327_
*1535 _1384_
*1536 _555_
*1537 _1337_
*1538 _1344_
*1539 _1338_
*1540 _1343_
*1541 _562_
*1542 _1345_
*1543 _1357_
*1544 _1355_
*1545 _1354_
*1546 _567_
*1547 _1350_
*1548 _1353_
*1549 _1357_
*1550 _1379_
*1551 Ain12b[7]
*1552 _1783_
*1553 _1479_
*1554 _1364_
*1555 _1362_
*1556 _582_
*1557 _1366_
*1558 _1380_
*1559 _1367_
*1560 _1368_
*1561 _589_
*1562 _1374_
*1563 _1399_
*1564 _1377_
*1565 _1390_
*1566 _592_
*1567 _1377_
*1568 _1400_
*1569 _1387_
*1570 _1378_
*1571 _615_
*1572 _1402_
*1573 _1407_
*1574 _1411_
*1575 _1408_
*1576 _619_
*1577 _1406_
*1578 _1407_
*1579 _1411_
*1580 _1408_
*1581 _165_
*1582 _928_
*1583 _1436_
*1584 _1506_
*1585 _930_
*1586 _118_
*1587 _875_
*1588 _876_
*1589 _1489_
*1590 _1487_
*1591 _181_
*1592 _944_
*1593 _945_
*1594 _995_
*1595 _1499_
*1596 _673_
*1597 _1499_
*1598 _1537_
*1599 _1531_
*1600 _1529_
*1601 _224_
*1602 _988_
*1603 _1539_
*1604 _1500_
*1605 _989_
*1606 _211_
*1607 _975_
*1608 _1551_
*1609 _1520_
*1610 _979_
*1611 _699_
*1612 _1525_
*1613 _1537_
*1614 _1528_
*1615 _1531_
*1616 _712_
*1617 _1539_
*1618 _1547_
*1619 _1571_
*1620 _1548_
*1621 _728_
*1622 _1555_
*1623 _1579_
*1624 _1556_
*1625 _1557_
*1626 _729_
*1627 _1556_
*1628 _1559_
*1629 _1584_
*1630 _1580_
*1631 _750_
*1632 _1578_
*1633 _1581_
*1634 _1582_
*1635 _1584_
*1636 _752_
*1637 _1580_
*1638 _1582_
*1639 _1581_
*1640 _1628_
*1641 _761_
*1642 _1590_
*1643 _1604_
*1644 _1592_
*1645 _1594_
*1646 _765_
*1647 _1594_
*1648 _1596_
*1649 _1595_
*1650 _1626_
*1651 _768_
*1652 _1597_
*1653 _1624_
*1654 _1617_
*1655 _1598_
*1656 _782_
*1657 _1612_
*1658 _1652_
*1659 _1616_
*1660 _1629_
*1661 _786_
*1662 _1616_
*1663 _1709_
*1664 _1619_
*1665 _1620_
*1666 _788_
*1667 _1618_
*1668 _1619_
*1669 _1620_
*1670 _1655_
*1671 _799_
*1672 _1630_
*1673 _1665_
*1674 _1633_
*1675 _1638_
*1676 _803_
*1677 _1634_
*1678 _1636_
*1679 _1665_
*1680 _1638_
*1681 _806_
*1682 _1637_
*1683 _1708_
*1684 _1641_
*1685 _1709_
*1686 _809_
*1687 _1640_
*1688 _1709_
*1689 _1651_
*1690 _1641_
*1691 _823_
*1692 _1655_
*1693 _1670_
*1694 _1705_
*1695 _1669_
*1696 _826_
*1697 _1658_
*1698 _1659_
*1699 _1676_
*1700 _1692_
*1701 _828_
*1702 _1660_
*1703 _1680_
*1704 _1663_
*1705 _1661_
*1706 _844_
*1707 _1677_
*1708 _1678_
*1709 _1696_
*1710 _1685_
*1711 _847_
*1712 _1680_
*1713 _1681_
*1714 _1683_
*1715 _1694_
*1716 _849_
*1717 _1682_
*1718 _1687_
*1719 _1711_
*1720 _1704_
*1721 _854_
*1722 _1687_
*1723 _1705_
*1724 _1689_
*1725 _1688_
*1726 _858_
*1727 _1692_
*1728 _1718_
*1729 _1697_
*1730 _1693_
*1731 _81_
*1732 _1701_
*1733 _1717_
*1734 _1707_
*1735 _1702_
*1736 LoadCtl[1]
*1737 _1791_
*1738 _873_
*1739 _1792_
*1740 _875_
*1741 LoadCtl[3]
*1742 _1793_
*1743 _866_
*1744 _870_
*1745 _1794_
*1746 _179_
*1747 _942_
*1748 _981_
*1749 _944_
*1750 _943_
*1751 _234_
*1752 _999_
*1753 _1001_
*1754 _1461_
*1755 _236_
*1756 _1001_
*1757 _1004_
*1758 _1060_
*1759 Yin0[1]
*1760 _1777_
*1761 _1002_
*1762 _964_
*1763 _243_
*1764 _1008_
*1765 _1012_
*1766 _1054_
*1767 _246_
*1768 _1011_
*1769 _1058_
*1770 _1012_
*1771 _248_
*1772 _1013_
*1773 _1014_
*1774 _1065_
*1775 Xcalc[1]
*1776 _1731_
*1777 _923_
*1778 _1020_
*1779 _256_
*1780 _1022_
*1781 _1024_
*1782 _1463_
*1783 _258_
*1784 _1024_
*1785 _1085_
*1786 _1027_
*1787 _264_
*1788 _1030_
*1789 _1082_
*1790 _1034_
*1791 _267_
*1792 _1033_
*1793 _1084_
*1794 _1034_
*1795 _268_
*1796 _1034_
*1797 _1129_
*1798 _1035_
*1799 _270_
*1800 _1036_
*1801 _1041_
*1802 _1039_
*1803 _272_
*1804 _1038_
*1805 _1041_
*1806 _1039_
*1807 Xcalc[2]
*1808 _1732_
*1809 _914_
*1810 _1048_
*1811 _286_
*1812 _1053_
*1813 _1055_
*1814 _1105_
*1815 _288_
*1816 _1055_
*1817 _1145_
*1818 _1062_
*1819 _290_
*1820 _1057_
*1821 _1084_
*1822 _1058_
*1823 _297_
*1824 _1064_
*1825 _1067_
*1826 _1069_
*1827 _299_
*1828 _1066_
*1829 _1069_
*1830 _1067_
*1831 _300_
*1832 _1067_
*1833 _1076_
*1834 _1068_
*1835 _302_
*1836 _1069_
*1837 _1070_
*1838 _1076_
*1839 _303_
*1840 _1070_
*1841 _1071_
*1842 _1072_
*1843 Xcalc[3]
*1844 _1733_
*1845 _923_
*1846 _1075_
*1847 _308_
*1848 _1076_
*1849 _1077_
*1850 _1100_
*1851 _309_
*1852 _1077_
*1853 _1097_
*1854 _1096_
*1855 Yin12b[10]
*1856 _1766_
*1857 _1079_
*1858 _1701_
*1859 _313_
*1860 _1081_
*1861 _1083_
*1862 _1125_
*1863 _315_
*1864 _1083_
*1865 _1168_
*1866 _1087_
*1867 _320_
*1868 _1088_
*1869 _1094_
*1870 _1092_
*1871 _322_
*1872 _1090_
*1873 _1091_
*1874 _1113_
*1875 _323_
*1876 _1091_
*1877 _1094_
*1878 _1092_
*1879 _324_
*1880 _1092_
*1881 _1093_
*1882 _1100_
*1883 _326_
*1884 _1094_
*1885 _1100_
*1886 _1095_
*1887 _327_
*1888 _1095_
*1889 _1097_
*1890 _1096_
*1891 _334_
*1892 _1103_
*1893 _1144_
*1894 _1104_
*1895 _336_
*1896 _1105_
*1897 _1187_
*1898 _1106_
*1899 _339_
*1900 _1108_
*1901 _1109_
*1902 _1111_
*1903 _340_
*1904 _1109_
*1905 _1115_
*1906 _1110_
*1907 _347_
*1908 _1116_
*1909 _1154_
*1910 _1117_
*1911 _150_
*1912 _911_
*1913 _912_
*1914 _1121_
*1915 _352_
*1916 _1122_
*1917 _1139_
*1918 _1140_
*1919 _354_
*1920 _1124_
*1921 _1130_
*1922 _1134_
*1923 _355_
*1924 _1125_
*1925 _1209_
*1926 _1128_
*1927 _363_
*1928 _1133_
*1929 _1137_
*1930 _1154_
*1931 _364_
*1932 _1134_
*1933 _1136_
*1934 _1156_
*1935 _365_
*1936 _1135_
*1937 _1136_
*1938 _1156_
*1939 _368_
*1940 _1138_
*1941 _1140_
*1942 _1139_
*1943 _158_
*1944 _920_
*1945 _921_
*1946 _1141_
*1947 _373_
*1948 _1144_
*1949 _1146_
*1950 _1224_
*1951 _375_
*1952 _1146_
*1953 _1149_
*1954 _1147_
*1955 _388_
*1956 _1159_
*1957 _1161_
*1958 _1165_
*1959 _149_
*1960 _910_
*1961 _1163_
*1962 _912_
*1963 _392_
*1964 _1164_
*1965 _1182_
*1966 _1165_
*1967 _393_
*1968 _1165_
*1969 _1178_
*1970 _1179_
*1971 _397_
*1972 _1169_
*1973 _1176_
*1974 _1170_
*1975 _400_
*1976 _1172_
*1977 _1183_
*1978 _1177_
*1979 _401_
*1980 _1173_
*1981 _1175_
*1982 _1192_
*1983 _404_
*1984 _1176_
*1985 _1182_
*1986 _1177_
*1987 _185_
*1988 _948_
*1989 _949_
*1990 _1179_
*1991 _157_
*1992 _919_
*1993 _1180_
*1994 _921_
*1995 Xcalc[8]
*1996 _1738_
*1997 _1181_
*1998 _908_
*1999 _415_
*2000 _1188_
*2001 _1224_
*2002 _1189_
*2003 _418_
*2004 _1191_
*2005 _1196_
*2006 _1193_
*2007 _419_
*2008 _1192_
*2009 _1197_
*2010 _1193_
*2011 _422_
*2012 _1195_
*2013 _1198_
*2014 _1422_
*2015 _430_
*2016 _1203_
*2017 _1204_
*2018 _1220_
*2019 _431_
*2020 _1204_
*2021 _1221_
*2022 _1205_
*2023 Xcalc[9]
*2024 _1739_
*2025 _917_
*2026 _1207_
*2027 _445_
*2028 _1219_
*2029 _1238_
*2030 _1220_
*2031 _452_
*2032 _1227_
*2033 _1235_
*2034 _1228_
*2035 _459_
*2036 _1234_
*2037 _1252_
*2038 _1236_
*2039 _462_
*2040 _1237_
*2041 _1241_
*2042 _1242_
*2043 _463_
*2044 _1238_
*2045 _1241_
*2046 _1243_
*2047 _465_
*2048 _1240_
*2049 _1241_
*2050 _1243_
*2051 _146_
*2052 _907_
*2053 _909_
*2054 _1246_
*2055 _474_
*2056 _1250_
*2057 _1251_
*2058 _1254_
*2059 _479_
*2060 _1255_
*2061 _1257_
*2062 _1256_
*2063 _154_
*2064 _916_
*2065 _1259_
*2066 _918_
*2067 _485_
*2068 _1262_
*2069 _1346_
*2070 _1263_
*2071 Acalc[0]
*2072 _1742_
*2073 _1267_
*2074 _877_
*2075 Acalc[1]
*2076 _1743_
*2077 _1269_
*2078 _886_
*2079 _493_
*2080 _1271_
*2081 _1272_
*2082 _1315_
*2083 _499_
*2084 _1277_
*2085 _1278_
*2086 _1279_
*2087 _501_
*2088 _1279_
*2089 _1284_
*2090 _1280_
*2091 Acalc[2]
*2092 _1744_
*2093 _877_
*2094 _1282_
*2095 _504_
*2096 _1283_
*2097 _1494_
*2098 _1284_
*2099 _505_
*2100 _1284_
*2101 _1292_
*2102 _1293_
*2103 _506_
*2104 _1285_
*2105 _1286_
*2106 _1287_
*2107 _508_
*2108 _1287_
*2109 _1289_
*2110 _1288_
*2111 _509_
*2112 _1288_
*2113 _1290_
*2114 _1296_
*2115 _512_
*2116 _1291_
*2117 _1293_
*2118 _1292_
*2119 _514_
*2120 _1293_
*2121 _1294_
*2122 _1296_
*2123 _516_
*2124 _1296_
*2125 _1297_
*2126 _1308_
*2127 _517_
*2128 _1297_
*2129 _1306_
*2130 _1320_
*2131 Ain1[1]
*2132 _1787_
*2133 _1298_
*2134 _1489_
*2135 _518_
*2136 _1298_
*2137 _1304_
*2138 _1303_
*2139 _521_
*2140 _1301_
*2141 _1302_
*2142 _1372_
*2143 _522_
*2144 _1302_
*2145 _1304_
*2146 _1303_
*2147 _523_
*2148 _1303_
*2149 _1306_
*2150 _1307_
*2151 _524_
*2152 _1304_
*2153 _1305_
*2154 _1308_
*2155 _525_
*2156 _1305_
*2157 _1306_
*2158 _1320_
*2159 _527_
*2160 _1307_
*2161 _1320_
*2162 _1308_
*2163 Acalc[3]
*2164 _1745_
*2165 _1310_
*2166 _886_
*2167 Acalc[4]
*2168 _1746_
*2169 _868_
*2170 _1312_
*2171 _532_
*2172 _1313_
*2173 _1319_
*2174 _1316_
*2175 _534_
*2176 _1315_
*2177 _1316_
*2178 _1319_
*2179 Ain12b[4]
*2180 _1784_
*2181 _1318_
*2182 _1317_
*2183 _537_
*2184 _1318_
*2185 _1482_
*2186 _1319_
*2187 _538_
*2188 _1319_
*2189 _1322_
*2190 _1321_
*2191 Acalc[5]
*2192 _1747_
*2193 _1326_
*2194 _883_
*2195 _545_
*2196 _1327_
*2197 _1340_
*2198 _1339_
*2199 _547_
*2200 _1329_
*2201 _1332_
*2202 _1336_
*2203 _549_
*2204 _1331_
*2205 _1332_
*2206 _1336_
*2207 Ain12b[5]
*2208 _1785_
*2209 _1333_
*2210 _1335_
*2211 _552_
*2212 _1334_
*2213 _1337_
*2214 _1344_
*2215 _553_
*2216 _1335_
*2217 _1484_
*2218 _1336_
*2219 _556_
*2220 _1338_
*2221 _1340_
*2222 _1339_
*2223 _560_
*2224 _1343_
*2225 _1383_
*2226 _1345_
*2227 _561_
*2228 _1344_
*2229 _1382_
*2230 _1345_
*2231 _563_
*2232 _1346_
*2233 _1347_
*2234 _1348_
*2235 _564_
*2236 _1347_
*2237 _1349_
*2238 _1352_
*2239 _565_
*2240 _1348_
*2241 _1349_
*2242 _1352_
*2243 Ain12b[6]
*2244 _1782_
*2245 _1350_
*2246 _1351_
*2247 _568_
*2248 _1351_
*2249 _1352_
*2250 _1477_
*2251 _110_
*2252 _867_
*2253 _871_
*2254 _1356_
*2255 _573_
*2256 _1357_
*2257 _1367_
*2258 _1368_
*2259 _574_
*2260 _1358_
*2261 _1360_
*2262 _1533_
*2263 _577_
*2264 _1361_
*2265 _1362_
*2266 _1364_
*2267 _578_
*2268 _1362_
*2269 _1379_
*2270 _1363_
*2271 _580_
*2272 _1364_
*2273 _1365_
*2274 _1379_
*2275 _124_
*2276 _882_
*2277 _884_
*2278 _1369_
*2279 Acalc[8]
*2280 _1750_
*2281 _1370_
*2282 _864_
*2283 _587_
*2284 _1372_
*2285 _1373_
*2286 _1376_
*2287 Ain12b[8]
*2288 _1780_
*2289 _1375_
*2290 _1374_
*2291 _590_
*2292 _1375_